
simpleFoam has been superseded and replaced by the more general
incompressibleFluid solver module executed by the foamRun application:

    foamRun -solver incompressibleFluid

/*---------------------------------------------------------------------------*\
  =========                 |
  \\      /  F ield         | OpenFOAM: The Open Source CFD Toolbox
   \\    /   O peration     | Website:  https://openfoam.org
    \\  /    A nd           | Version:  11
     \\/     M anipulation  |
\*---------------------------------------------------------------------------*/
Build  : 11-c219200fdb8b
Exec   : foamRun -solver incompressibleFluid
Date   : May 14 2024
Time   : 12:15:53
Host   : "Precision-5820-Tower"
PID    : 768408
I/O    : uncollated
Case   : /home/melkor/projects/fluid_stuff/Deep-Flow-Prediction/data/OpenFOAM
nProcs : 1
sigFpe : Enabling floating point exception trapping (FOAM_SIGFPE).
fileModificationChecking : Monitoring run-time modified files using timeStampMaster (fileModificationSkew 10)
allowSystemOperations : Allowing user-supplied system call operations

// * * * * * * * * * * * * * * * * * * * * * * * * * * * * * * * * * * * * * //
Create time

Create mesh for time = 0

Selecting solver incompressibleFluid
Selecting viscosity model Newtonian
Selecting turbulence model type RAS
Selecting RAS turbulence model SpalartAllmaras
Selecting patchDistMethod meshWave
RAS
{
    RASModel        SpalartAllmaras;
    turbulence      on;
    printCoeffs     on;
    sigmaNut        0.66666;
    kappa           0.41;
    Cb1             0.1355;
    Cb2             0.622;
    Cw2             0.3;
    Cw3             2;
    Cv1             7.1;
    Cs              0.3;
}

No MRF models present


SIMPLE: Convergence criteria found
        p: tolerance 1e-05
        U: tolerance 1e-05
        nuTilda: tolerance 1e-05


SIMPLE: Operating solver in steady-state mode with 1 outer corrector
SIMPLE: Operating solver in SIMPLE mode



Starting time loop

Reading set description:
    cloud

Time = 1s

smoothSolver:  Solving for Ux, Initial residual = 1, Final residual = 0.0482215, No Iterations 2
smoothSolver:  Solving for Uy, Initial residual = 1, Final residual = 0.0574632, No Iterations 2
GAMG:  Solving for p, Initial residual = 1, Final residual = 0.0758021, No Iterations 8
time step continuity errors : sum local = 0.0170473, global = -0.00301649, cumulative = -0.00301649
smoothSolver:  Solving for nuTilda, Initial residual = 1, Final residual = 0.0440875, No Iterations 2
ExecutionTime = 4.97828 s  ClockTime = 5 s

Time = 2s

smoothSolver:  Solving for Ux, Initial residual = 0.588796, Final residual = 0.0437888, No Iterations 4
smoothSolver:  Solving for Uy, Initial residual = 0.525052, Final residual = 0.0401187, No Iterations 4
GAMG:  Solving for p, Initial residual = 0.0788948, Final residual = 0.00550361, No Iterations 3
time step continuity errors : sum local = 0.115534, global = 0.00509732, cumulative = 0.00208083
smoothSolver:  Solving for nuTilda, Initial residual = 0.139402, Final residual = 0.00278381, No Iterations 4
ExecutionTime = 5.05419 s  ClockTime = 5 s

Time = 3s

smoothSolver:  Solving for Ux, Initial residual = 0.242708, Final residual = 0.0182258, No Iterations 4
smoothSolver:  Solving for Uy, Initial residual = 0.166046, Final residual = 0.0127505, No Iterations 4
GAMG:  Solving for p, Initial residual = 0.0730657, Final residual = 0.00657407, No Iterations 5
time step continuity errors : sum local = 0.118232, global = 0.018124, cumulative = 0.0202049
smoothSolver:  Solving for nuTilda, Initial residual = 0.0536596, Final residual = 0.00204436, No Iterations 4
ExecutionTime = 5.13909 s  ClockTime = 5 s

Time = 4s

smoothSolver:  Solving for Ux, Initial residual = 0.0509172, Final residual = 0.00270092, No Iterations 4
smoothSolver:  Solving for Uy, Initial residual = 0.0261072, Final residual = 0.00150991, No Iterations 4
GAMG:  Solving for p, Initial residual = 0.501364, Final residual = 0.0450824, No Iterations 4
time step continuity errors : sum local = 0.111384, global = -0.00104131, cumulative = 0.0191636
smoothSolver:  Solving for nuTilda, Initial residual = 0.0332146, Final residual = 0.00164018, No Iterations 4
ExecutionTime = 5.22049 s  ClockTime = 5 s

Time = 5s

smoothSolver:  Solving for Ux, Initial residual = 0.249718, Final residual = 0.0185145, No Iterations 4
smoothSolver:  Solving for Uy, Initial residual = 0.133108, Final residual = 0.0101053, No Iterations 4
GAMG:  Solving for p, Initial residual = 0.138424, Final residual = 0.0109713, No Iterations 2
time step continuity errors : sum local = 0.137642, global = -0.000414024, cumulative = 0.0187495
smoothSolver:  Solving for nuTilda, Initial residual = 0.0245918, Final residual = 0.0013584, No Iterations 4
ExecutionTime = 5.29403 s  ClockTime = 5 s

Time = 6s

smoothSolver:  Solving for Ux, Initial residual = 0.360567, Final residual = 0.0270698, No Iterations 4
smoothSolver:  Solving for Uy, Initial residual = 0.177769, Final residual = 0.0136125, No Iterations 4
GAMG:  Solving for p, Initial residual = 0.114819, Final residual = 0.00673219, No Iterations 5
time step continuity errors : sum local = 0.0737154, global = -0.0106884, cumulative = 0.00806113
smoothSolver:  Solving for nuTilda, Initial residual = 0.0203857, Final residual = 0.00119124, No Iterations 4
ExecutionTime = 5.3785 s  ClockTime = 5 s

Time = 7s

smoothSolver:  Solving for Ux, Initial residual = 0.122389, Final residual = 0.00729248, No Iterations 4
smoothSolver:  Solving for Uy, Initial residual = 0.0701333, Final residual = 0.00453848, No Iterations 4
GAMG:  Solving for p, Initial residual = 0.344769, Final residual = 0.0291283, No Iterations 4
time step continuity errors : sum local = 0.0703987, global = -0.00402365, cumulative = 0.00403748
smoothSolver:  Solving for nuTilda, Initial residual = 0.0173035, Final residual = 0.0010369, No Iterations 4
ExecutionTime = 5.46072 s  ClockTime = 5 s

Time = 8s

smoothSolver:  Solving for Ux, Initial residual = 0.217304, Final residual = 0.0161367, No Iterations 4
smoothSolver:  Solving for Uy, Initial residual = 0.135651, Final residual = 0.0102702, No Iterations 4
GAMG:  Solving for p, Initial residual = 0.131073, Final residual = 0.00750714, No Iterations 3
time step continuity errors : sum local = 0.0677016, global = 0.00186603, cumulative = 0.00590351
smoothSolver:  Solving for nuTilda, Initial residual = 0.0144277, Final residual = 0.000885383, No Iterations 4
ExecutionTime = 5.53514 s  ClockTime = 5 s

Time = 9s

smoothSolver:  Solving for Ux, Initial residual = 0.124086, Final residual = 0.00928813, No Iterations 4
smoothSolver:  Solving for Uy, Initial residual = 0.068149, Final residual = 0.00521054, No Iterations 4
GAMG:  Solving for p, Initial residual = 0.101466, Final residual = 0.00621503, No Iterations 5
time step continuity errors : sum local = 0.047597, global = 0.00876842, cumulative = 0.0146719
smoothSolver:  Solving for nuTilda, Initial residual = 0.0127171, Final residual = 0.00079402, No Iterations 4
ExecutionTime = 5.61512 s  ClockTime = 5 s

Time = 10s

smoothSolver:  Solving for Ux, Initial residual = 0.047417, Final residual = 0.00302724, No Iterations 4
smoothSolver:  Solving for Uy, Initial residual = 0.0256395, Final residual = 0.00173315, No Iterations 4
GAMG:  Solving for p, Initial residual = 0.588538, Final residual = 0.0421213, No Iterations 4
time step continuity errors : sum local = 0.0449275, global = 0.00525347, cumulative = 0.0199254
smoothSolver:  Solving for nuTilda, Initial residual = 0.0114547, Final residual = 0.000728045, No Iterations 4
ExecutionTime = 5.6926 s  ClockTime = 5 s

Time = 11s

smoothSolver:  Solving for Ux, Initial residual = 0.125048, Final residual = 0.00931364, No Iterations 4
smoothSolver:  Solving for Uy, Initial residual = 0.0668629, Final residual = 0.00504265, No Iterations 4
GAMG:  Solving for p, Initial residual = 0.174367, Final residual = 0.0106392, No Iterations 3
time step continuity errors : sum local = 0.0502871, global = -0.00268798, cumulative = 0.0172374
smoothSolver:  Solving for nuTilda, Initial residual = 0.0104065, Final residual = 0.000676918, No Iterations 4
ExecutionTime = 5.76956 s  ClockTime = 5 s

Time = 12s

smoothSolver:  Solving for Ux, Initial residual = 0.113027, Final residual = 0.00844352, No Iterations 4
smoothSolver:  Solving for Uy, Initial residual = 0.0536487, Final residual = 0.00408657, No Iterations 4
GAMG:  Solving for p, Initial residual = 0.133729, Final residual = 0.00747922, No Iterations 5
time step continuity errors : sum local = 0.0294354, global = -0.00567349, cumulative = 0.0115639
smoothSolver:  Solving for nuTilda, Initial residual = 0.00972473, Final residual = 0.000641948, No Iterations 4
ExecutionTime = 5.85377 s  ClockTime = 6 s

Time = 13s

smoothSolver:  Solving for Ux, Initial residual = 0.0512563, Final residual = 0.00341096, No Iterations 4
smoothSolver:  Solving for Uy, Initial residual = 0.0290406, Final residual = 0.00202712, No Iterations 4
GAMG:  Solving for p, Initial residual = 0.34386, Final residual = 0.022692, No Iterations 4
time step continuity errors : sum local = 0.0286227, global = -0.00438143, cumulative = 0.00718248
smoothSolver:  Solving for nuTilda, Initial residual = 0.00894958, Final residual = 0.000594061, No Iterations 4
ExecutionTime = 5.93553 s  ClockTime = 6 s

Time = 14s

smoothSolver:  Solving for Ux, Initial residual = 0.0869234, Final residual = 0.00646432, No Iterations 4
smoothSolver:  Solving for Uy, Initial residual = 0.04735, Final residual = 0.00357014, No Iterations 4
GAMG:  Solving for p, Initial residual = 0.14543, Final residual = 0.00971014, No Iterations 3
time step continuity errors : sum local = 0.0361354, global = 0.00273041, cumulative = 0.0099129
smoothSolver:  Solving for nuTilda, Initial residual = 0.00812372, Final residual = 0.000545342, No Iterations 4
ExecutionTime = 6.01535 s  ClockTime = 6 s

Time = 15s

smoothSolver:  Solving for Ux, Initial residual = 0.0569389, Final residual = 0.00421816, No Iterations 4
smoothSolver:  Solving for Uy, Initial residual = 0.0262113, Final residual = 0.00198987, No Iterations 4
GAMG:  Solving for p, Initial residual = 0.10207, Final residual = 0.00955344, No Iterations 4
time step continuity errors : sum local = 0.0320648, global = -0.00397818, cumulative = 0.00593471
smoothSolver:  Solving for nuTilda, Initial residual = 0.00757741, Final residual = 0.000512194, No Iterations 4
ExecutionTime = 6.09894 s  ClockTime = 6 s

Time = 16s

smoothSolver:  Solving for Ux, Initial residual = 0.0278961, Final residual = 0.00189864, No Iterations 4
smoothSolver:  Solving for Uy, Initial residual = 0.0151526, Final residual = 0.00106488, No Iterations 4
GAMG:  Solving for p, Initial residual = 0.231132, Final residual = 0.0145102, No Iterations 4
time step continuity errors : sum local = 0.0187743, global = -0.00336012, cumulative = 0.00257459
smoothSolver:  Solving for nuTilda, Initial residual = 0.00713102, Final residual = 0.000486208, No Iterations 4
ExecutionTime = 6.18002 s  ClockTime = 6 s

Time = 17s

smoothSolver:  Solving for Ux, Initial residual = 0.0539129, Final residual = 0.00402701, No Iterations 4
smoothSolver:  Solving for Uy, Initial residual = 0.0281561, Final residual = 0.00211714, No Iterations 4
GAMG:  Solving for p, Initial residual = 0.253052, Final residual = 0.0181703, No Iterations 3
time step continuity errors : sum local = 0.025527, global = 0.00134552, cumulative = 0.0039201
smoothSolver:  Solving for nuTilda, Initial residual = 0.00674386, Final residual = 0.000465617, No Iterations 4
ExecutionTime = 6.26517 s  ClockTime = 6 s

Time = 18s

smoothSolver:  Solving for Ux, Initial residual = 0.0422907, Final residual = 0.00314751, No Iterations 4
smoothSolver:  Solving for Uy, Initial residual = 0.01892, Final residual = 0.00142609, No Iterations 4
GAMG:  Solving for p, Initial residual = 0.165295, Final residual = 0.0152581, No Iterations 4
time step continuity errors : sum local = 0.0212559, global = 0.00344195, cumulative = 0.00736205
smoothSolver:  Solving for nuTilda, Initial residual = 0.0064321, Final residual = 0.000447124, No Iterations 4
ExecutionTime = 6.34848 s  ClockTime = 6 s

Time = 19s

smoothSolver:  Solving for Ux, Initial residual = 0.023106, Final residual = 0.00159664, No Iterations 4
smoothSolver:  Solving for Uy, Initial residual = 0.0127993, Final residual = 0.000908877, No Iterations 4
GAMG:  Solving for p, Initial residual = 0.32455, Final residual = 0.0214486, No Iterations 4
time step continuity errors : sum local = 0.0135913, global = 0.00341091, cumulative = 0.010773
smoothSolver:  Solving for nuTilda, Initial residual = 0.00607805, Final residual = 0.0004242, No Iterations 4
ExecutionTime = 6.43035 s  ClockTime = 6 s

Time = 20s

smoothSolver:  Solving for Ux, Initial residual = 0.0369275, Final residual = 0.00273624, No Iterations 4
smoothSolver:  Solving for Uy, Initial residual = 0.0184982, Final residual = 0.00138892, No Iterations 4
GAMG:  Solving for p, Initial residual = 0.14077, Final residual = 0.010893, No Iterations 3
time step continuity errors : sum local = 0.0181952, global = -0.00153759, cumulative = 0.00923538
smoothSolver:  Solving for nuTilda, Initial residual = 0.00571888, Final residual = 0.000401472, No Iterations 4
ExecutionTime = 6.50915 s  ClockTime = 6 s

Time = 21s

smoothSolver:  Solving for Ux, Initial residual = 0.0267106, Final residual = 0.0019627, No Iterations 4
smoothSolver:  Solving for Uy, Initial residual = 0.0110856, Final residual = 0.000833277, No Iterations 4
GAMG:  Solving for p, Initial residual = 0.0845275, Final residual = 0.00750367, No Iterations 4
time step continuity errors : sum local = 0.0140246, global = -0.00280211, cumulative = 0.00643326
smoothSolver:  Solving for nuTilda, Initial residual = 0.0054451, Final residual = 0.000383682, No Iterations 4
ExecutionTime = 6.59097 s  ClockTime = 6 s

Time = 22s

smoothSolver:  Solving for Ux, Initial residual = 0.0144966, Final residual = 0.00101107, No Iterations 4
smoothSolver:  Solving for Uy, Initial residual = 0.00781949, Final residual = 0.00055636, No Iterations 4
GAMG:  Solving for p, Initial residual = 0.10626, Final residual = 0.00720236, No Iterations 4
time step continuity errors : sum local = 0.00966777, global = -0.00258186, cumulative = 0.0038514
smoothSolver:  Solving for nuTilda, Initial residual = 0.00521961, Final residual = 0.000369617, No Iterations 4
ExecutionTime = 6.67196 s  ClockTime = 6 s

Time = 23s

smoothSolver:  Solving for Ux, Initial residual = 0.0216828, Final residual = 0.00162367, No Iterations 4
smoothSolver:  Solving for Uy, Initial residual = 0.0116463, Final residual = 0.000869322, No Iterations 4
GAMG:  Solving for p, Initial residual = 0.222343, Final residual = 0.0179259, No Iterations 3
time step continuity errors : sum local = 0.0126451, global = 0.00124256, cumulative = 0.00509397
smoothSolver:  Solving for nuTilda, Initial residual = 0.00502212, Final residual = 0.000357579, No Iterations 4
ExecutionTime = 6.75072 s  ClockTime = 6 s

Time = 24s

smoothSolver:  Solving for Ux, Initial residual = 0.0172134, Final residual = 0.00126983, No Iterations 4
smoothSolver:  Solving for Uy, Initial residual = 0.00830354, Final residual = 0.000616654, No Iterations 4
GAMG:  Solving for p, Initial residual = 0.27285, Final residual = 0.0224576, No Iterations 4
time step continuity errors : sum local = 0.00903658, global = 0.00190511, cumulative = 0.00699907
smoothSolver:  Solving for nuTilda, Initial residual = 0.00484079, Final residual = 0.000345742, No Iterations 4
ExecutionTime = 6.8326 s  ClockTime = 7 s

Time = 25s

smoothSolver:  Solving for Ux, Initial residual = 0.0115476, Final residual = 0.000805059, No Iterations 4
smoothSolver:  Solving for Uy, Initial residual = 0.00656418, Final residual = 0.000470548, No Iterations 4
GAMG:  Solving for p, Initial residual = 0.179875, Final residual = 0.0120903, No Iterations 4
time step continuity errors : sum local = 0.00673539, global = 0.00181049, cumulative = 0.00880957
smoothSolver:  Solving for nuTilda, Initial residual = 0.00464801, Final residual = 0.000332655, No Iterations 4
ExecutionTime = 6.91449 s  ClockTime = 7 s

Time = 26s

smoothSolver:  Solving for Ux, Initial residual = 0.0164538, Final residual = 0.00120651, No Iterations 4
smoothSolver:  Solving for Uy, Initial residual = 0.00789684, Final residual = 0.000586258, No Iterations 4
GAMG:  Solving for p, Initial residual = 0.113053, Final residual = 0.00871974, No Iterations 3
time step continuity errors : sum local = 0.0083071, global = -0.000595365, cumulative = 0.0082142
smoothSolver:  Solving for nuTilda, Initial residual = 0.00446052, Final residual = 0.000319849, No Iterations 4
ExecutionTime = 6.99241 s  ClockTime = 7 s

Time = 27s

smoothSolver:  Solving for Ux, Initial residual = 0.0132975, Final residual = 0.00096621, No Iterations 4
smoothSolver:  Solving for Uy, Initial residual = 0.00542068, Final residual = 0.000401893, No Iterations 4
GAMG:  Solving for p, Initial residual = 0.0658732, Final residual = 0.00488513, No Iterations 4
time step continuity errors : sum local = 0.0058624, global = -0.00129067, cumulative = 0.00692353
smoothSolver:  Solving for nuTilda, Initial residual = 0.00429791, Final residual = 0.000308685, No Iterations 4
ExecutionTime = 7.07471 s  ClockTime = 7 s

Time = 28s

smoothSolver:  Solving for Ux, Initial residual = 0.00839905, Final residual = 0.00059083, No Iterations 4
smoothSolver:  Solving for Uy, Initial residual = 0.0043838, Final residual = 0.000313213, No Iterations 4
GAMG:  Solving for p, Initial residual = 0.0583154, Final residual = 0.00388047, No Iterations 4
time step continuity errors : sum local = 0.00469943, global = -0.00128183, cumulative = 0.00564171
smoothSolver:  Solving for nuTilda, Initial residual = 0.00416173, Final residual = 0.000299249, No Iterations 4
ExecutionTime = 7.15506 s  ClockTime = 7 s

Time = 29s

smoothSolver:  Solving for Ux, Initial residual = 0.00965615, Final residual = 0.000712135, No Iterations 4
smoothSolver:  Solving for Uy, Initial residual = 0.00555914, Final residual = 0.000409838, No Iterations 4
GAMG:  Solving for p, Initial residual = 0.0730163, Final residual = 0.0058532, No Iterations 3
time step continuity errors : sum local = 0.00583311, global = 0.000533014, cumulative = 0.00617472
smoothSolver:  Solving for nuTilda, Initial residual = 0.00403922, Final residual = 0.000290833, No Iterations 4
ExecutionTime = 7.23424 s  ClockTime = 7 s

Time = 30s

smoothSolver:  Solving for Ux, Initial residual = 0.00818718, Final residual = 0.000591888, No Iterations 4
smoothSolver:  Solving for Uy, Initial residual = 0.00462466, Final residual = 0.000338744, No Iterations 4
GAMG:  Solving for p, Initial residual = 0.0714461, Final residual = 0.00471772, No Iterations 4
time step continuity errors : sum local = 0.00367325, global = 0.000734399, cumulative = 0.00690912
smoothSolver:  Solving for nuTilda, Initial residual = 0.00392135, Final residual = 0.000282656, No Iterations 4
ExecutionTime = 7.31877 s  ClockTime = 7 s

Time = 31s

smoothSolver:  Solving for Ux, Initial residual = 0.00705457, Final residual = 0.000489527, No Iterations 4
smoothSolver:  Solving for Uy, Initial residual = 0.00409694, Final residual = 0.000294239, No Iterations 4
GAMG:  Solving for p, Initial residual = 0.0751885, Final residual = 0.00442817, No Iterations 4
time step continuity errors : sum local = 0.00300669, global = 0.000773606, cumulative = 0.00768273
smoothSolver:  Solving for nuTilda, Initial residual = 0.00380182, Final residual = 0.000274084, No Iterations 4
ExecutionTime = 7.40415 s  ClockTime = 7 s

Time = 32s

smoothSolver:  Solving for Ux, Initial residual = 0.00877142, Final residual = 0.000629538, No Iterations 4
smoothSolver:  Solving for Uy, Initial residual = 0.00422445, Final residual = 0.000306316, No Iterations 4
GAMG:  Solving for p, Initial residual = 0.0661237, Final residual = 0.00457323, No Iterations 3
time step continuity errors : sum local = 0.00360151, global = -1.44432e-05, cumulative = 0.00766828
smoothSolver:  Solving for nuTilda, Initial residual = 0.00368494, Final residual = 0.000265799, No Iterations 4
ExecutionTime = 7.48843 s  ClockTime = 7 s

Time = 33s

smoothSolver:  Solving for Ux, Initial residual = 0.00789929, Final residual = 0.000565717, No Iterations 4
smoothSolver:  Solving for Uy, Initial residual = 0.00344987, Final residual = 0.000249603, No Iterations 4
GAMG:  Solving for p, Initial residual = 0.0440271, Final residual = 0.00270339, No Iterations 4
time step continuity errors : sum local = 0.00255435, global = -0.000519084, cumulative = 0.0071492
smoothSolver:  Solving for nuTilda, Initial residual = 0.00357857, Final residual = 0.000258289, No Iterations 4
ExecutionTime = 7.57265 s  ClockTime = 7 s

Time = 34s

smoothSolver:  Solving for Ux, Initial residual = 0.00630413, Final residual = 0.000447343, No Iterations 4
smoothSolver:  Solving for Uy, Initial residual = 0.00313064, Final residual = 0.000224381, No Iterations 4
GAMG:  Solving for p, Initial residual = 0.0350631, Final residual = 0.00325691, No Iterations 3
time step continuity errors : sum local = 0.00346835, global = 0.00076878, cumulative = 0.00791798
smoothSolver:  Solving for nuTilda, Initial residual = 0.00348309, Final residual = 0.000251547, No Iterations 4
ExecutionTime = 7.65566 s  ClockTime = 7 s

Time = 35s

smoothSolver:  Solving for Ux, Initial residual = 0.0061581, Final residual = 0.000439679, No Iterations 4
smoothSolver:  Solving for Uy, Initial residual = 0.00341349, Final residual = 0.000248233, No Iterations 4
GAMG:  Solving for p, Initial residual = 0.0347692, Final residual = 0.00229133, No Iterations 3
time step continuity errors : sum local = 0.00235765, global = -8.39612e-05, cumulative = 0.00783402
smoothSolver:  Solving for nuTilda, Initial residual = 0.00339597, Final residual = 0.000245284, No Iterations 4
ExecutionTime = 7.73618 s  ClockTime = 7 s

Time = 36s

smoothSolver:  Solving for Ux, Initial residual = 0.00579512, Final residual = 0.0004094, No Iterations 4
smoothSolver:  Solving for Uy, Initial residual = 0.00326561, Final residual = 0.000236875, No Iterations 4
GAMG:  Solving for p, Initial residual = 0.0325561, Final residual = 0.00273259, No Iterations 3
time step continuity errors : sum local = 0.00251659, global = -0.000452211, cumulative = 0.00738181
smoothSolver:  Solving for nuTilda, Initial residual = 0.00331146, Final residual = 0.00023922, No Iterations 4
ExecutionTime = 7.8127 s  ClockTime = 7 s

Time = 37s

smoothSolver:  Solving for Ux, Initial residual = 0.00559844, Final residual = 0.000389001, No Iterations 4
smoothSolver:  Solving for Uy, Initial residual = 0.0031133, Final residual = 0.000223345, No Iterations 4
GAMG:  Solving for p, Initial residual = 0.0337146, Final residual = 0.00275596, No Iterations 3
time step continuity errors : sum local = 0.00225237, global = 0.000238137, cumulative = 0.00761994
smoothSolver:  Solving for nuTilda, Initial residual = 0.00322943, Final residual = 0.000233222, No Iterations 4
ExecutionTime = 7.89088 s  ClockTime = 8 s

Time = 38s

smoothSolver:  Solving for Ux, Initial residual = 0.00605137, Final residual = 0.000424003, No Iterations 4
smoothSolver:  Solving for Uy, Initial residual = 0.00299714, Final residual = 0.000213909, No Iterations 4
GAMG:  Solving for p, Initial residual = 0.0337166, Final residual = 0.00229864, No Iterations 3
time step continuity errors : sum local = 0.00184756, global = 0.000317956, cumulative = 0.0079379
smoothSolver:  Solving for nuTilda, Initial residual = 0.00314967, Final residual = 0.000227429, No Iterations 4
ExecutionTime = 7.96543 s  ClockTime = 8 s

Time = 39s

smoothSolver:  Solving for Ux, Initial residual = 0.00610395, Final residual = 0.000431241, No Iterations 4
smoothSolver:  Solving for Uy, Initial residual = 0.0027917, Final residual = 0.000199145, No Iterations 4
GAMG:  Solving for p, Initial residual = 0.0278711, Final residual = 0.00207009, No Iterations 3
time step continuity errors : sum local = 0.00179638, global = 0.000461417, cumulative = 0.00839932
smoothSolver:  Solving for nuTilda, Initial residual = 0.00307479, Final residual = 0.000222044, No Iterations 4
ExecutionTime = 8.04371 s  ClockTime = 8 s

Time = 40s

smoothSolver:  Solving for Ux, Initial residual = 0.00579351, Final residual = 0.000410563, No Iterations 4
smoothSolver:  Solving for Uy, Initial residual = 0.00271497, Final residual = 0.000194414, No Iterations 4
GAMG:  Solving for p, Initial residual = 0.0232457, Final residual = 0.00151958, No Iterations 3
time step continuity errors : sum local = 0.00145105, global = 0.000334811, cumulative = 0.00873413
smoothSolver:  Solving for nuTilda, Initial residual = 0.00300485, Final residual = 0.000216982, No Iterations 4
ExecutionTime = 8.11987 s  ClockTime = 8 s

Time = 41s

smoothSolver:  Solving for Ux, Initial residual = 0.00558276, Final residual = 0.000395653, No Iterations 4
smoothSolver:  Solving for Uy, Initial residual = 0.0027899, Final residual = 0.000200754, No Iterations 4
GAMG:  Solving for p, Initial residual = 0.0211136, Final residual = 0.00123444, No Iterations 3
time step continuity errors : sum local = 0.00122745, global = 0.000140156, cumulative = 0.00887428
smoothSolver:  Solving for nuTilda, Initial residual = 0.00293934, Final residual = 0.000212155, No Iterations 4
ExecutionTime = 8.20198 s  ClockTime = 8 s

Time = 42s

smoothSolver:  Solving for Ux, Initial residual = 0.00544936, Final residual = 0.000384136, No Iterations 4
smoothSolver:  Solving for Uy, Initial residual = 0.00279379, Final residual = 0.000200697, No Iterations 4
GAMG:  Solving for p, Initial residual = 0.0196851, Final residual = 0.00129735, No Iterations 3
time step continuity errors : sum local = 0.00125728, global = 0.000133101, cumulative = 0.00900738
smoothSolver:  Solving for nuTilda, Initial residual = 0.002877, Final residual = 0.000207547, No Iterations 4
ExecutionTime = 8.28609 s  ClockTime = 8 s

Time = 43s

smoothSolver:  Solving for Ux, Initial residual = 0.00532139, Final residual = 0.000370956, No Iterations 4
smoothSolver:  Solving for Uy, Initial residual = 0.00274495, Final residual = 0.000196176, No Iterations 4
GAMG:  Solving for p, Initial residual = 0.01951, Final residual = 0.00134118, No Iterations 3
time step continuity errors : sum local = 0.00121759, global = 0.00017715, cumulative = 0.00918453
smoothSolver:  Solving for nuTilda, Initial residual = 0.00281647, Final residual = 0.000203056, No Iterations 4
ExecutionTime = 8.36572 s  ClockTime = 8 s

Time = 44s

smoothSolver:  Solving for Ux, Initial residual = 0.00540356, Final residual = 0.000376378, No Iterations 4
smoothSolver:  Solving for Uy, Initial residual = 0.00265925, Final residual = 0.000188838, No Iterations 4
GAMG:  Solving for p, Initial residual = 0.0199312, Final residual = 0.00124832, No Iterations 3
time step continuity errors : sum local = 0.00108125, global = 0.000185629, cumulative = 0.00937016
smoothSolver:  Solving for nuTilda, Initial residual = 0.00275813, Final residual = 0.000198845, No Iterations 4
ExecutionTime = 8.4408 s  ClockTime = 8 s

Time = 45s

smoothSolver:  Solving for Ux, Initial residual = 0.00553448, Final residual = 0.000388315, No Iterations 4
smoothSolver:  Solving for Uy, Initial residual = 0.00258422, Final residual = 0.000183005, No Iterations 4
GAMG:  Solving for p, Initial residual = 0.0188859, Final residual = 0.0010042, No Iterations 3
time step continuity errors : sum local = 0.00087758, global = 0.000228885, cumulative = 0.00959905
smoothSolver:  Solving for nuTilda, Initial residual = 0.00270286, Final residual = 0.00019481, No Iterations 4
ExecutionTime = 8.51426 s  ClockTime = 8 s

Time = 46s

smoothSolver:  Solving for Ux, Initial residual = 0.00552629, Final residual = 0.000389322, No Iterations 4
smoothSolver:  Solving for Uy, Initial residual = 0.00256436, Final residual = 0.000182004, No Iterations 4
GAMG:  Solving for p, Initial residual = 0.0171926, Final residual = 0.000916478, No Iterations 3
time step continuity errors : sum local = 0.00083567, global = 0.000240879, cumulative = 0.00983993
smoothSolver:  Solving for nuTilda, Initial residual = 0.00265043, Final residual = 0.000190977, No Iterations 4
ExecutionTime = 8.58959 s  ClockTime = 8 s

Time = 47s

smoothSolver:  Solving for Ux, Initial residual = 0.00543436, Final residual = 0.000382648, No Iterations 4
smoothSolver:  Solving for Uy, Initial residual = 0.00257766, Final residual = 0.000183476, No Iterations 4
GAMG:  Solving for p, Initial residual = 0.0156947, Final residual = 0.000771248, No Iterations 3
time step continuity errors : sum local = 0.000733026, global = 0.000181222, cumulative = 0.0100212
smoothSolver:  Solving for nuTilda, Initial residual = 0.0026005, Final residual = 0.000187226, No Iterations 4
ExecutionTime = 8.66514 s  ClockTime = 8 s

Time = 48s

smoothSolver:  Solving for Ux, Initial residual = 0.00535312, Final residual = 0.000376028, No Iterations 4
smoothSolver:  Solving for Uy, Initial residual = 0.00258245, Final residual = 0.000183766, No Iterations 4
GAMG:  Solving for p, Initial residual = 0.0146946, Final residual = 0.00132972, No Iterations 2
time step continuity errors : sum local = 0.00128196, global = -0.000188379, cumulative = 0.00983277
smoothSolver:  Solving for nuTilda, Initial residual = 0.00255235, Final residual = 0.00018361, No Iterations 4
ExecutionTime = 8.73693 s  ClockTime = 8 s

Time = 49s

smoothSolver:  Solving for Ux, Initial residual = 0.00528573, Final residual = 0.00037035, No Iterations 4
smoothSolver:  Solving for Uy, Initial residual = 0.00255512, Final residual = 0.000181203, No Iterations 4
GAMG:  Solving for p, Initial residual = 0.0141587, Final residual = 0.00089444, No Iterations 3
time step continuity errors : sum local = 0.000856492, global = 0.000141647, cumulative = 0.00997442
smoothSolver:  Solving for nuTilda, Initial residual = 0.00250617, Final residual = 0.000180142, No Iterations 4
ExecutionTime = 8.81143 s  ClockTime = 8 s

Time = 50s

smoothSolver:  Solving for Ux, Initial residual = 0.00525786, Final residual = 0.0003667, No Iterations 4
smoothSolver:  Solving for Uy, Initial residual = 0.00252032, Final residual = 0.000178287, No Iterations 4
GAMG:  Solving for p, Initial residual = 0.0141245, Final residual = 0.00141109, No Iterations 2
time step continuity errors : sum local = 0.00130905, global = -0.000289672, cumulative = 0.00968475
smoothSolver:  Solving for nuTilda, Initial residual = 0.00246146, Final residual = 0.000176791, No Iterations 4
ExecutionTime = 8.88979 s  ClockTime = 9 s

Time = 51s

smoothSolver:  Solving for Ux, Initial residual = 0.00525657, Final residual = 0.000366722, No Iterations 4
smoothSolver:  Solving for Uy, Initial residual = 0.0024827, Final residual = 0.00017514, No Iterations 4
GAMG:  Solving for p, Initial residual = 0.0142631, Final residual = 0.000876378, No Iterations 3
time step continuity errors : sum local = 0.000799175, global = 0.000142781, cumulative = 0.00982753
smoothSolver:  Solving for nuTilda, Initial residual = 0.00241806, Final residual = 0.000173502, No Iterations 4
ExecutionTime = 8.97051 s  ClockTime = 9 s

Time = 52s

smoothSolver:  Solving for Ux, Initial residual = 0.0053263, Final residual = 0.000373057, No Iterations 4
smoothSolver:  Solving for Uy, Initial residual = 0.00245964, Final residual = 0.000173393, No Iterations 4
GAMG:  Solving for p, Initial residual = 0.0141619, Final residual = 0.00120813, No Iterations 2
time step continuity errors : sum local = 0.00109498, global = -0.000117892, cumulative = 0.00970964
smoothSolver:  Solving for nuTilda, Initial residual = 0.0023762, Final residual = 0.00017029, No Iterations 4
ExecutionTime = 9.04486 s  ClockTime = 9 s

Time = 53s

smoothSolver:  Solving for Ux, Initial residual = 0.00531276, Final residual = 0.000372927, No Iterations 4
smoothSolver:  Solving for Uy, Initial residual = 0.00244698, Final residual = 0.000172543, No Iterations 4
GAMG:  Solving for p, Initial residual = 0.0137532, Final residual = 0.00118916, No Iterations 2
time step continuity errors : sum local = 0.00109153, global = -6.26708e-05, cumulative = 0.00964696
smoothSolver:  Solving for nuTilda, Initial residual = 0.00233621, Final residual = 0.00016718, No Iterations 4
ExecutionTime = 9.11575 s  ClockTime = 9 s

Time = 54s

smoothSolver:  Solving for Ux, Initial residual = 0.00527032, Final residual = 0.000370214, No Iterations 4
smoothSolver:  Solving for Uy, Initial residual = 0.00243986, Final residual = 0.000172177, No Iterations 4
GAMG:  Solving for p, Initial residual = 0.0131861, Final residual = 0.00108977, No Iterations 2
time step continuity errors : sum local = 0.00102004, global = -5.54563e-06, cumulative = 0.00964142
smoothSolver:  Solving for nuTilda, Initial residual = 0.00229782, Final residual = 0.000164172, No Iterations 4
ExecutionTime = 9.18756 s  ClockTime = 9 s

Time = 55s

smoothSolver:  Solving for Ux, Initial residual = 0.00522782, Final residual = 0.000367071, No Iterations 4
smoothSolver:  Solving for Uy, Initial residual = 0.00243, Final residual = 0.000171541, No Iterations 4
GAMG:  Solving for p, Initial residual = 0.0126947, Final residual = 0.000898462, No Iterations 2
time step continuity errors : sum local = 0.000855595, global = 1.09927e-06, cumulative = 0.00964252
smoothSolver:  Solving for nuTilda, Initial residual = 0.00226064, Final residual = 0.000161302, No Iterations 4
ExecutionTime = 9.25981 s  ClockTime = 9 s

Time = 56s

smoothSolver:  Solving for Ux, Initial residual = 0.00518867, Final residual = 0.000364037, No Iterations 4
smoothSolver:  Solving for Uy, Initial residual = 0.00241436, Final residual = 0.000170327, No Iterations 4
GAMG:  Solving for p, Initial residual = 0.0123291, Final residual = 0.000889922, No Iterations 2
time step continuity errors : sum local = 0.000855093, global = -6.92747e-05, cumulative = 0.00957324
smoothSolver:  Solving for nuTilda, Initial residual = 0.0022249, Final residual = 0.000158492, No Iterations 4
ExecutionTime = 9.32694 s  ClockTime = 9 s

Time = 57s

smoothSolver:  Solving for Ux, Initial residual = 0.00515182, Final residual = 0.000361053, No Iterations 4
smoothSolver:  Solving for Uy, Initial residual = 0.00239465, Final residual = 0.000168697, No Iterations 4
GAMG:  Solving for p, Initial residual = 0.0121051, Final residual = 0.000986931, No Iterations 2
time step continuity errors : sum local = 0.000950676, global = -0.000164153, cumulative = 0.00940909
smoothSolver:  Solving for nuTilda, Initial residual = 0.0021901, Final residual = 0.0001557, No Iterations 4
ExecutionTime = 9.396 s  ClockTime = 9 s

Time = 58s

smoothSolver:  Solving for Ux, Initial residual = 0.0051245, Final residual = 0.000358681, No Iterations 4
smoothSolver:  Solving for Uy, Initial residual = 0.00237236, Final residual = 0.000166847, No Iterations 4
GAMG:  Solving for p, Initial residual = 0.0120448, Final residual = 0.00109287, No Iterations 2
time step continuity errors : sum local = 0.00104834, global = -0.000219966, cumulative = 0.00918912
smoothSolver:  Solving for nuTilda, Initial residual = 0.00215568, Final residual = 0.000152907, No Iterations 4
ExecutionTime = 9.46649 s  ClockTime = 9 s

Time = 59s

smoothSolver:  Solving for Ux, Initial residual = 0.00511353, Final residual = 0.000357789, No Iterations 4
smoothSolver:  Solving for Uy, Initial residual = 0.00234895, Final residual = 0.000164963, No Iterations 4
GAMG:  Solving for p, Initial residual = 0.0121039, Final residual = 0.00110252, No Iterations 2
time step continuity errors : sum local = 0.00104782, global = -0.000175275, cumulative = 0.00901385
smoothSolver:  Solving for nuTilda, Initial residual = 0.00212193, Final residual = 0.000150141, No Iterations 4
ExecutionTime = 9.53818 s  ClockTime = 9 s

Time = 60s

smoothSolver:  Solving for Ux, Initial residual = 0.00511745, Final residual = 0.000358484, No Iterations 4
smoothSolver:  Solving for Uy, Initial residual = 0.00233013, Final residual = 0.000163525, No Iterations 4
GAMG:  Solving for p, Initial residual = 0.0121912, Final residual = 0.000910552, No Iterations 2
time step continuity errors : sum local = 0.000858167, global = -6.22595e-05, cumulative = 0.00895159
smoothSolver:  Solving for nuTilda, Initial residual = 0.00208888, Final residual = 0.000147464, No Iterations 4
ExecutionTime = 9.61012 s  ClockTime = 9 s

Time = 61s

smoothSolver:  Solving for Ux, Initial residual = 0.0051036, Final residual = 0.000357777, No Iterations 4
smoothSolver:  Solving for Uy, Initial residual = 0.00231922, Final residual = 0.000162839, No Iterations 4
GAMG:  Solving for p, Initial residual = 0.0121887, Final residual = 0.000660717, No Iterations 2
time step continuity errors : sum local = 0.000621964, global = -8.63978e-06, cumulative = 0.00894295
smoothSolver:  Solving for nuTilda, Initial residual = 0.00205652, Final residual = 0.000144907, No Iterations 4
ExecutionTime = 9.6835 s  ClockTime = 9 s

Time = 62s

smoothSolver:  Solving for Ux, Initial residual = 0.00506248, Final residual = 0.000354919, No Iterations 4
smoothSolver:  Solving for Uy, Initial residual = 0.00230699, Final residual = 0.00016201, No Iterations 4
GAMG:  Solving for p, Initial residual = 0.0120132, Final residual = 0.000660656, No Iterations 2
time step continuity errors : sum local = 0.00062529, global = 7.80443e-06, cumulative = 0.00895075
smoothSolver:  Solving for nuTilda, Initial residual = 0.00202493, Final residual = 0.000142449, No Iterations 4
ExecutionTime = 9.75618 s  ClockTime = 9 s

Time = 63s

smoothSolver:  Solving for Ux, Initial residual = 0.00501561, Final residual = 0.000351518, No Iterations 4
smoothSolver:  Solving for Uy, Initial residual = 0.00228993, Final residual = 0.000160742, No Iterations 4
GAMG:  Solving for p, Initial residual = 0.0117498, Final residual = 0.000742386, No Iterations 2
time step continuity errors : sum local = 0.000709157, global = 3.11096e-06, cumulative = 0.00895386
smoothSolver:  Solving for nuTilda, Initial residual = 0.00199465, Final residual = 0.000140075, No Iterations 4
ExecutionTime = 9.82826 s  ClockTime = 10 s

Time = 64s

smoothSolver:  Solving for Ux, Initial residual = 0.0049775, Final residual = 0.000348747, No Iterations 4
smoothSolver:  Solving for Uy, Initial residual = 0.00226951, Final residual = 0.000159155, No Iterations 4
GAMG:  Solving for p, Initial residual = 0.0115231, Final residual = 0.000759748, No Iterations 2
time step continuity errors : sum local = 0.000733619, global = -5.06699e-06, cumulative = 0.0089488
smoothSolver:  Solving for nuTilda, Initial residual = 0.00196458, Final residual = 0.000137754, No Iterations 4
ExecutionTime = 9.89974 s  ClockTime = 10 s

Time = 65s

smoothSolver:  Solving for Ux, Initial residual = 0.00494613, Final residual = 0.000346626, No Iterations 4
smoothSolver:  Solving for Uy, Initial residual = 0.0022493, Final residual = 0.000157592, No Iterations 4
GAMG:  Solving for p, Initial residual = 0.011378, Final residual = 0.00072989, No Iterations 2
time step continuity errors : sum local = 0.000711406, global = -2.71737e-05, cumulative = 0.00892162
smoothSolver:  Solving for nuTilda, Initial residual = 0.00193481, Final residual = 0.000135481, No Iterations 4
ExecutionTime = 9.97092 s  ClockTime = 10 s

Time = 66s

smoothSolver:  Solving for Ux, Initial residual = 0.00491817, Final residual = 0.000344791, No Iterations 4
smoothSolver:  Solving for Uy, Initial residual = 0.00223252, Final residual = 0.000156341, No Iterations 4
GAMG:  Solving for p, Initial residual = 0.0112751, Final residual = 0.00074484, No Iterations 2
time step continuity errors : sum local = 0.000730469, global = -6.64839e-05, cumulative = 0.00885514
smoothSolver:  Solving for nuTilda, Initial residual = 0.00190528, Final residual = 0.000133224, No Iterations 4
ExecutionTime = 10.0425 s  ClockTime = 10 s

Time = 67s

smoothSolver:  Solving for Ux, Initial residual = 0.0048946, Final residual = 0.000343371, No Iterations 4
smoothSolver:  Solving for Uy, Initial residual = 0.00221802, Final residual = 0.000155324, No Iterations 4
GAMG:  Solving for p, Initial residual = 0.0112368, Final residual = 0.00111418, No Iterations 1
time step continuity errors : sum local = 0.00109492, global = 5.67949e-05, cumulative = 0.00891193
smoothSolver:  Solving for nuTilda, Initial residual = 0.00187652, Final residual = 0.000131026, No Iterations 4
ExecutionTime = 10.1096 s  ClockTime = 10 s

Time = 68s

smoothSolver:  Solving for Ux, Initial residual = 0.0048391, Final residual = 0.000339438, No Iterations 4
smoothSolver:  Solving for Uy, Initial residual = 0.00219937, Final residual = 0.000153883, No Iterations 4
GAMG:  Solving for p, Initial residual = 0.011193, Final residual = 0.000940536, No Iterations 2
time step continuity errors : sum local = 0.000925082, global = -0.00018876, cumulative = 0.00872318
smoothSolver:  Solving for nuTilda, Initial residual = 0.00184868, Final residual = 0.000128865, No Iterations 4
ExecutionTime = 10.1813 s  ClockTime = 10 s

Time = 69s

smoothSolver:  Solving for Ux, Initial residual = 0.00483291, Final residual = 0.000339685, No Iterations 4
smoothSolver:  Solving for Uy, Initial residual = 0.00218035, Final residual = 0.0001525, No Iterations 4
GAMG:  Solving for p, Initial residual = 0.0112065, Final residual = 0.000868985, No Iterations 2
time step continuity errors : sum local = 0.000850963, global = -0.000140547, cumulative = 0.00858263
smoothSolver:  Solving for nuTilda, Initial residual = 0.00182077, Final residual = 0.000126757, No Iterations 4
ExecutionTime = 10.2535 s  ClockTime = 10 s

Time = 70s

smoothSolver:  Solving for Ux, Initial residual = 0.00482499, Final residual = 0.00033971, No Iterations 4
smoothSolver:  Solving for Uy, Initial residual = 0.00216375, Final residual = 0.000151376, No Iterations 4
GAMG:  Solving for p, Initial residual = 0.0113585, Final residual = 0.00105891, No Iterations 1
time step continuity errors : sum local = 0.00103312, global = -1.21382e-05, cumulative = 0.00857049
smoothSolver:  Solving for nuTilda, Initial residual = 0.00179383, Final residual = 0.000124678, No Iterations 4
ExecutionTime = 10.3271 s  ClockTime = 10 s

Time = 71s

smoothSolver:  Solving for Ux, Initial residual = 0.0047685, Final residual = 0.000335851, No Iterations 4
smoothSolver:  Solving for Uy, Initial residual = 0.0021445, Final residual = 0.000149891, No Iterations 4
GAMG:  Solving for p, Initial residual = 0.0112566, Final residual = 0.000621503, No Iterations 2
time step continuity errors : sum local = 0.000607388, global = -3.70369e-05, cumulative = 0.00853345
smoothSolver:  Solving for nuTilda, Initial residual = 0.00176675, Final residual = 0.000122687, No Iterations 4
ExecutionTime = 10.4033 s  ClockTime = 10 s

Time = 72s

smoothSolver:  Solving for Ux, Initial residual = 0.00474208, Final residual = 0.000334228, No Iterations 4
smoothSolver:  Solving for Uy, Initial residual = 0.00212744, Final residual = 0.000148718, No Iterations 4
GAMG:  Solving for p, Initial residual = 0.0110755, Final residual = 0.00105447, No Iterations 1
time step continuity errors : sum local = 0.00103368, global = 0.000120819, cumulative = 0.00865427
smoothSolver:  Solving for nuTilda, Initial residual = 0.00174011, Final residual = 0.000120749, No Iterations 4
ExecutionTime = 10.4755 s  ClockTime = 10 s

Time = 73s

smoothSolver:  Solving for Ux, Initial residual = 0.00468991, Final residual = 0.000330503, No Iterations 4
smoothSolver:  Solving for Uy, Initial residual = 0.00210804, Final residual = 0.000147252, No Iterations 4
GAMG:  Solving for p, Initial residual = 0.0110463, Final residual = 0.000811652, No Iterations 2
time step continuity errors : sum local = 0.000798114, global = -4.29663e-05, cumulative = 0.00861131
smoothSolver:  Solving for nuTilda, Initial residual = 0.00171363, Final residual = 0.000118838, No Iterations 4
ExecutionTime = 10.5473 s  ClockTime = 10 s

Time = 74s

smoothSolver:  Solving for Ux, Initial residual = 0.00467033, Final residual = 0.000329443, No Iterations 4
smoothSolver:  Solving for Uy, Initial residual = 0.0020906, Final residual = 0.000146011, No Iterations 4
GAMG:  Solving for p, Initial residual = 0.0109146, Final residual = 0.000783046, No Iterations 2
time step continuity errors : sum local = 0.000776708, global = -3.08093e-05, cumulative = 0.0085805
smoothSolver:  Solving for nuTilda, Initial residual = 0.0016874, Final residual = 0.00011692, No Iterations 4
ExecutionTime = 10.6192 s  ClockTime = 10 s

Time = 75s

smoothSolver:  Solving for Ux, Initial residual = 0.00464797, Final residual = 0.000328192, No Iterations 4
smoothSolver:  Solving for Uy, Initial residual = 0.0020767, Final residual = 0.000145098, No Iterations 4
GAMG:  Solving for p, Initial residual = 0.0108429, Final residual = 0.000903658, No Iterations 1
time step continuity errors : sum local = 0.000904538, global = 9.03499e-05, cumulative = 0.00867085
smoothSolver:  Solving for nuTilda, Initial residual = 0.00166204, Final residual = 0.000115048, No Iterations 4
ExecutionTime = 10.6876 s  ClockTime = 10 s

Time = 76s

smoothSolver:  Solving for Ux, Initial residual = 0.00459313, Final residual = 0.000324149, No Iterations 4
smoothSolver:  Solving for Uy, Initial residual = 0.00205796, Final residual = 0.000143708, No Iterations 4
GAMG:  Solving for p, Initial residual = 0.0107024, Final residual = 0.00102155, No Iterations 1
time step continuity errors : sum local = 0.00102573, global = 0.000133116, cumulative = 0.00880396
smoothSolver:  Solving for nuTilda, Initial residual = 0.00163699, Final residual = 0.000113203, No Iterations 4
ExecutionTime = 10.7558 s  ClockTime = 10 s

Time = 77s

smoothSolver:  Solving for Ux, Initial residual = 0.00454319, Final residual = 0.000320472, No Iterations 4
smoothSolver:  Solving for Uy, Initial residual = 0.00204102, Final residual = 0.000142467, No Iterations 4
GAMG:  Solving for p, Initial residual = 0.0105869, Final residual = 0.000934753, No Iterations 2
time step continuity errors : sum local = 0.000941292, global = -0.000118464, cumulative = 0.0086855
smoothSolver:  Solving for nuTilda, Initial residual = 0.00161266, Final residual = 0.000111387, No Iterations 4
ExecutionTime = 10.8277 s  ClockTime = 11 s

Time = 78s

smoothSolver:  Solving for Ux, Initial residual = 0.00453637, Final residual = 0.000320547, No Iterations 4
smoothSolver:  Solving for Uy, Initial residual = 0.00203094, Final residual = 0.000141927, No Iterations 4
GAMG:  Solving for p, Initial residual = 0.0106118, Final residual = 0.000826059, No Iterations 2
time step continuity errors : sum local = 0.000836764, global = -9.6987e-05, cumulative = 0.00858851
smoothSolver:  Solving for nuTilda, Initial residual = 0.00158902, Final residual = 0.000109626, No Iterations 4
ExecutionTime = 10.8984 s  ClockTime = 11 s

Time = 79s

smoothSolver:  Solving for Ux, Initial residual = 0.00452544, Final residual = 0.00032021, No Iterations 4
smoothSolver:  Solving for Uy, Initial residual = 0.00201667, Final residual = 0.000141122, No Iterations 4
GAMG:  Solving for p, Initial residual = 0.0106969, Final residual = 0.000871999, No Iterations 1
time step continuity errors : sum local = 0.000886077, global = -1.22938e-05, cumulative = 0.00857622
smoothSolver:  Solving for nuTilda, Initial residual = 0.00156612, Final residual = 0.000107925, No Iterations 4
ExecutionTime = 10.9668 s  ClockTime = 11 s

Time = 80s

smoothSolver:  Solving for Ux, Initial residual = 0.00447508, Final residual = 0.000316561, No Iterations 4
smoothSolver:  Solving for Uy, Initial residual = 0.00199603, Final residual = 0.000139603, No Iterations 4
GAMG:  Solving for p, Initial residual = 0.0104949, Final residual = 0.000942564, No Iterations 1
time step continuity errors : sum local = 0.000959625, global = -3.17296e-06, cumulative = 0.00857304
smoothSolver:  Solving for nuTilda, Initial residual = 0.00154371, Final residual = 0.000106257, No Iterations 4
ExecutionTime = 11.0351 s  ClockTime = 11 s

Time = 81s

smoothSolver:  Solving for Ux, Initial residual = 0.00442725, Final residual = 0.000313078, No Iterations 4
smoothSolver:  Solving for Uy, Initial residual = 0.00197476, Final residual = 0.000138051, No Iterations 4
GAMG:  Solving for p, Initial residual = 0.0103553, Final residual = 0.00060428, No Iterations 2
time step continuity errors : sum local = 0.000616247, global = -9.09907e-05, cumulative = 0.00848205
smoothSolver:  Solving for nuTilda, Initial residual = 0.00152182, Final residual = 0.000104625, No Iterations 4
ExecutionTime = 11.1067 s  ClockTime = 11 s

Time = 82s

smoothSolver:  Solving for Ux, Initial residual = 0.00440562, Final residual = 0.000311568, No Iterations 4
smoothSolver:  Solving for Uy, Initial residual = 0.00195081, Final residual = 0.000136406, No Iterations 4
GAMG:  Solving for p, Initial residual = 0.0103213, Final residual = 0.000980891, No Iterations 1
time step continuity errors : sum local = 0.00100038, global = 8.12497e-05, cumulative = 0.0085633
smoothSolver:  Solving for nuTilda, Initial residual = 0.00150072, Final residual = 0.000103013, No Iterations 4
ExecutionTime = 11.1753 s  ClockTime = 11 s

Time = 83s

smoothSolver:  Solving for Ux, Initial residual = 0.00436247, Final residual = 0.000308454, No Iterations 4
smoothSolver:  Solving for Uy, Initial residual = 0.00193132, Final residual = 0.000135061, No Iterations 4
GAMG:  Solving for p, Initial residual = 0.0103367, Final residual = 0.000673006, No Iterations 2
time step continuity errors : sum local = 0.00068734, global = -8.51596e-05, cumulative = 0.00847814
smoothSolver:  Solving for nuTilda, Initial residual = 0.00148043, Final residual = 0.000101433, No Iterations 4
ExecutionTime = 11.2487 s  ClockTime = 11 s

Time = 84s

smoothSolver:  Solving for Ux, Initial residual = 0.00434223, Final residual = 0.000307272, No Iterations 4
smoothSolver:  Solving for Uy, Initial residual = 0.00191516, Final residual = 0.000134068, No Iterations 4
GAMG:  Solving for p, Initial residual = 0.0103142, Final residual = 0.000914221, No Iterations 1
time step continuity errors : sum local = 0.000934677, global = 0.000115483, cumulative = 0.00859363
smoothSolver:  Solving for nuTilda, Initial residual = 0.00146062, Final residual = 9.9916e-05, No Iterations 4
ExecutionTime = 11.3202 s  ClockTime = 11 s

Time = 85s

smoothSolver:  Solving for Ux, Initial residual = 0.00429932, Final residual = 0.000304162, No Iterations 4
smoothSolver:  Solving for Uy, Initial residual = 0.00189808, Final residual = 0.000132923, No Iterations 4
GAMG:  Solving for p, Initial residual = 0.0102381, Final residual = 0.00101734, No Iterations 1
time step continuity errors : sum local = 0.00104206, global = 0.000186392, cumulative = 0.00878002
smoothSolver:  Solving for nuTilda, Initial residual = 0.00144081, Final residual = 9.84302e-05, No Iterations 4
ExecutionTime = 11.3918 s  ClockTime = 11 s

Time = 86s

smoothSolver:  Solving for Ux, Initial residual = 0.00425954, Final residual = 0.000301323, No Iterations 4
smoothSolver:  Solving for Uy, Initial residual = 0.00188297, Final residual = 0.000131925, No Iterations 4
GAMG:  Solving for p, Initial residual = 0.0102368, Final residual = 0.00087996, No Iterations 2
time step continuity errors : sum local = 0.000903356, global = -7.61734e-05, cumulative = 0.00870385
smoothSolver:  Solving for nuTilda, Initial residual = 0.00142134, Final residual = 9.69513e-05, No Iterations 4
ExecutionTime = 11.4637 s  ClockTime = 11 s

Time = 87s

smoothSolver:  Solving for Ux, Initial residual = 0.00424631, Final residual = 0.00030099, No Iterations 4
smoothSolver:  Solving for Uy, Initial residual = 0.0018779, Final residual = 0.000131759, No Iterations 4
GAMG:  Solving for p, Initial residual = 0.0102899, Final residual = 0.000926615, No Iterations 1
time step continuity errors : sum local = 0.000957117, global = 0.000162537, cumulative = 0.00886638
smoothSolver:  Solving for nuTilda, Initial residual = 0.00140231, Final residual = 9.54959e-05, No Iterations 4
ExecutionTime = 11.532 s  ClockTime = 11 s

Time = 88s

smoothSolver:  Solving for Ux, Initial residual = 0.00420567, Final residual = 0.000297847, No Iterations 4
smoothSolver:  Solving for Uy, Initial residual = 0.00186034, Final residual = 0.000130608, No Iterations 4
GAMG:  Solving for p, Initial residual = 0.0101851, Final residual = 0.000960609, No Iterations 1
time step continuity errors : sum local = 0.000994951, global = 0.000175592, cumulative = 0.00904197
smoothSolver:  Solving for nuTilda, Initial residual = 0.00138407, Final residual = 9.41033e-05, No Iterations 4
ExecutionTime = 11.6003 s  ClockTime = 11 s

Time = 89s

smoothSolver:  Solving for Ux, Initial residual = 0.00416673, Final residual = 0.000294833, No Iterations 4
smoothSolver:  Solving for Uy, Initial residual = 0.00184228, Final residual = 0.000129373, No Iterations 4
GAMG:  Solving for p, Initial residual = 0.0100991, Final residual = 0.000744399, No Iterations 2
time step continuity errors : sum local = 0.000773338, global = -5.65544e-05, cumulative = 0.00898542
smoothSolver:  Solving for nuTilda, Initial residual = 0.00136593, Final residual = 9.27308e-05, No Iterations 4
ExecutionTime = 11.6754 s  ClockTime = 11 s

Time = 90s

smoothSolver:  Solving for Ux, Initial residual = 0.00415397, Final residual = 0.000294141, No Iterations 4
smoothSolver:  Solving for Uy, Initial residual = 0.00182425, Final residual = 0.000128252, No Iterations 4
GAMG:  Solving for p, Initial residual = 0.0100472, Final residual = 0.00080932, No Iterations 1
time step continuity errors : sum local = 0.000847704, global = 0.000102003, cumulative = 0.00908742
smoothSolver:  Solving for nuTilda, Initial residual = 0.00134811, Final residual = 9.13843e-05, No Iterations 4
ExecutionTime = 11.7476 s  ClockTime = 11 s

Time = 91s

smoothSolver:  Solving for Ux, Initial residual = 0.00411372, Final residual = 0.00029103, No Iterations 4
smoothSolver:  Solving for Uy, Initial residual = 0.00180263, Final residual = 0.00012673, No Iterations 4
GAMG:  Solving for p, Initial residual = 0.00993583, Final residual = 0.000845989, No Iterations 1
time step continuity errors : sum local = 0.000888569, global = 9.64753e-05, cumulative = 0.0091839
smoothSolver:  Solving for nuTilda, Initial residual = 0.00133052, Final residual = 9.00558e-05, No Iterations 4
ExecutionTime = 11.8222 s  ClockTime = 12 s

Time = 92s

smoothSolver:  Solving for Ux, Initial residual = 0.00407541, Final residual = 0.000288056, No Iterations 4
smoothSolver:  Solving for Uy, Initial residual = 0.00178072, Final residual = 0.000125145, No Iterations 4
GAMG:  Solving for p, Initial residual = 0.00986938, Final residual = 0.000970297, No Iterations 1
time step continuity errors : sum local = 0.0010218, global = 0.000138502, cumulative = 0.0093224
smoothSolver:  Solving for nuTilda, Initial residual = 0.00131285, Final residual = 8.87361e-05, No Iterations 4
ExecutionTime = 11.8923 s  ClockTime = 12 s

Time = 93s

smoothSolver:  Solving for Ux, Initial residual = 0.00404137, Final residual = 0.000285457, No Iterations 4
smoothSolver:  Solving for Uy, Initial residual = 0.00175855, Final residual = 0.000123549, No Iterations 4
GAMG:  Solving for p, Initial residual = 0.00986533, Final residual = 0.000632306, No Iterations 2
time step continuity errors : sum local = 0.000667517, global = -7.86365e-05, cumulative = 0.00924376
smoothSolver:  Solving for nuTilda, Initial residual = 0.00129584, Final residual = 8.74568e-05, No Iterations 4
ExecutionTime = 11.9636 s  ClockTime = 12 s

Time = 94s

smoothSolver:  Solving for Ux, Initial residual = 0.00402754, Final residual = 0.000284606, No Iterations 4
smoothSolver:  Solving for Uy, Initial residual = 0.00173346, Final residual = 0.000121776, No Iterations 4
GAMG:  Solving for p, Initial residual = 0.00982426, Final residual = 0.000845193, No Iterations 1
time step continuity errors : sum local = 0.000895638, global = 9.75489e-05, cumulative = 0.00934131
smoothSolver:  Solving for nuTilda, Initial residual = 0.00127861, Final residual = 8.62073e-05, No Iterations 4
ExecutionTime = 12.0323 s  ClockTime = 12 s

Time = 95s

smoothSolver:  Solving for Ux, Initial residual = 0.00399192, Final residual = 0.000281865, No Iterations 4
smoothSolver:  Solving for Uy, Initial residual = 0.00171334, Final residual = 0.000120355, No Iterations 4
GAMG:  Solving for p, Initial residual = 0.00977044, Final residual = 0.000856196, No Iterations 1
time step continuity errors : sum local = 0.000908938, global = 9.94488e-05, cumulative = 0.00944076
smoothSolver:  Solving for nuTilda, Initial residual = 0.00126185, Final residual = 8.49896e-05, No Iterations 4
ExecutionTime = 12.0998 s  ClockTime = 12 s

Time = 96s

smoothSolver:  Solving for Ux, Initial residual = 0.00395565, Final residual = 0.000279128, No Iterations 4
smoothSolver:  Solving for Uy, Initial residual = 0.00169514, Final residual = 0.000119033, No Iterations 4
GAMG:  Solving for p, Initial residual = 0.0097371, Final residual = 0.000944673, No Iterations 1
time step continuity errors : sum local = 0.00100449, global = 0.000148545, cumulative = 0.00958931
smoothSolver:  Solving for nuTilda, Initial residual = 0.00124577, Final residual = 8.38157e-05, No Iterations 4
ExecutionTime = 12.168 s  ClockTime = 12 s

Time = 97s

smoothSolver:  Solving for Ux, Initial residual = 0.00392123, Final residual = 0.000276586, No Iterations 4
smoothSolver:  Solving for Uy, Initial residual = 0.00167868, Final residual = 0.000117853, No Iterations 4
GAMG:  Solving for p, Initial residual = 0.00973955, Final residual = 0.000689434, No Iterations 2
time step continuity errors : sum local = 0.000734151, global = -7.62235e-05, cumulative = 0.00951308
smoothSolver:  Solving for nuTilda, Initial residual = 0.00122967, Final residual = 8.26462e-05, No Iterations 4
ExecutionTime = 12.2396 s  ClockTime = 12 s

Time = 98s

smoothSolver:  Solving for Ux, Initial residual = 0.00390199, Final residual = 0.000275462, No Iterations 4
smoothSolver:  Solving for Uy, Initial residual = 0.00167052, Final residual = 0.000117322, No Iterations 4
GAMG:  Solving for p, Initial residual = 0.00976115, Final residual = 0.000787634, No Iterations 1
time step continuity errors : sum local = 0.00084009, global = 9.81739e-05, cumulative = 0.00961126
smoothSolver:  Solving for nuTilda, Initial residual = 0.00121367, Final residual = 8.14996e-05, No Iterations 4
ExecutionTime = 12.3089 s  ClockTime = 12 s

Time = 99s

smoothSolver:  Solving for Ux, Initial residual = 0.00386535, Final residual = 0.000272613, No Iterations 4
smoothSolver:  Solving for Uy, Initial residual = 0.00165118, Final residual = 0.000115948, No Iterations 4
GAMG:  Solving for p, Initial residual = 0.00965217, Final residual = 0.000786545, No Iterations 1
time step continuity errors : sum local = 0.000840324, global = 9.14843e-05, cumulative = 0.00970274
smoothSolver:  Solving for nuTilda, Initial residual = 0.00119796, Final residual = 8.03778e-05, No Iterations 4
ExecutionTime = 12.3781 s  ClockTime = 12 s

Time = 100s

smoothSolver:  Solving for Ux, Initial residual = 0.00382873, Final residual = 0.00026981, No Iterations 4
smoothSolver:  Solving for Uy, Initial residual = 0.00163132, Final residual = 0.000114485, No Iterations 4
GAMG:  Solving for p, Initial residual = 0.0095415, Final residual = 0.000857255, No Iterations 1
time step continuity errors : sum local = 0.000917544, global = 0.000132336, cumulative = 0.00983508
smoothSolver:  Solving for nuTilda, Initial residual = 0.00118266, Final residual = 7.92792e-05, No Iterations 4
ExecutionTime = 12.4471 s  ClockTime = 12 s

Time = 101s

smoothSolver:  Solving for Ux, Initial residual = 0.00379498, Final residual = 0.000267239, No Iterations 4
smoothSolver:  Solving for Uy, Initial residual = 0.00161084, Final residual = 0.000112994, No Iterations 4
GAMG:  Solving for p, Initial residual = 0.00946966, Final residual = 0.000550529, No Iterations 2
time step continuity errors : sum local = 0.000590439, global = -2.7869e-05, cumulative = 0.00980721
smoothSolver:  Solving for nuTilda, Initial residual = 0.00116751, Final residual = 7.81949e-05, No Iterations 4
ExecutionTime = 12.5195 s  ClockTime = 12 s

Time = 102s

smoothSolver:  Solving for Ux, Initial residual = 0.00377544, Final residual = 0.000265945, No Iterations 4
smoothSolver:  Solving for Uy, Initial residual = 0.00159033, Final residual = 0.000111592, No Iterations 4
GAMG:  Solving for p, Initial residual = 0.00939266, Final residual = 0.000743118, No Iterations 1
time step continuity errors : sum local = 0.000800213, global = 0.000118176, cumulative = 0.00992539
smoothSolver:  Solving for nuTilda, Initial residual = 0.00115236, Final residual = 7.71026e-05, No Iterations 4
ExecutionTime = 12.5877 s  ClockTime = 12 s

Time = 103s

smoothSolver:  Solving for Ux, Initial residual = 0.00374026, Final residual = 0.000263397, No Iterations 4
smoothSolver:  Solving for Uy, Initial residual = 0.00156802, Final residual = 0.000110001, No Iterations 4
GAMG:  Solving for p, Initial residual = 0.00925881, Final residual = 0.000752641, No Iterations 1
time step continuity errors : sum local = 0.000812287, global = 0.000123688, cumulative = 0.0100491
smoothSolver:  Solving for nuTilda, Initial residual = 0.00113767, Final residual = 7.59994e-05, No Iterations 4
ExecutionTime = 12.657 s  ClockTime = 12 s

Time = 104s

smoothSolver:  Solving for Ux, Initial residual = 0.00370634, Final residual = 0.000260851, No Iterations 4
smoothSolver:  Solving for Uy, Initial residual = 0.00154552, Final residual = 0.000108364, No Iterations 4
GAMG:  Solving for p, Initial residual = 0.00913778, Final residual = 0.000827879, No Iterations 1
time step continuity errors : sum local = 0.000895603, global = 0.000158227, cumulative = 0.0102073
smoothSolver:  Solving for nuTilda, Initial residual = 0.00112348, Final residual = 7.49153e-05, No Iterations 4
ExecutionTime = 12.7263 s  ClockTime = 12 s

Time = 105s

smoothSolver:  Solving for Ux, Initial residual = 0.00367542, Final residual = 0.000258433, No Iterations 4
smoothSolver:  Solving for Uy, Initial residual = 0.00152262, Final residual = 0.00010672, No Iterations 4
GAMG:  Solving for p, Initial residual = 0.00904878, Final residual = 0.000527376, No Iterations 2
time step continuity errors : sum local = 0.000571981, global = -5.74872e-05, cumulative = 0.0101498
smoothSolver:  Solving for nuTilda, Initial residual = 0.00110885, Final residual = 7.38914e-05, No Iterations 4
ExecutionTime = 12.7973 s  ClockTime = 12 s

Time = 106s

smoothSolver:  Solving for Ux, Initial residual = 0.00365736, Final residual = 0.000257249, No Iterations 4
smoothSolver:  Solving for Uy, Initial residual = 0.00149562, Final residual = 0.000104753, No Iterations 4
GAMG:  Solving for p, Initial residual = 0.00891206, Final residual = 0.00066837, No Iterations 1
time step continuity errors : sum local = 0.000729062, global = 7.96749e-05, cumulative = 0.0102295
smoothSolver:  Solving for nuTilda, Initial residual = 0.00109442, Final residual = 7.29314e-05, No Iterations 4
ExecutionTime = 12.8657 s  ClockTime = 13 s

Time = 107s

smoothSolver:  Solving for Ux, Initial residual = 0.00362408, Final residual = 0.00025479, No Iterations 4
smoothSolver:  Solving for Uy, Initial residual = 0.00147243, Final residual = 0.000103146, No Iterations 4
GAMG:  Solving for p, Initial residual = 0.00875438, Final residual = 0.000664469, No Iterations 1
time step continuity errors : sum local = 0.000726372, global = 5.42207e-05, cumulative = 0.0102837
smoothSolver:  Solving for nuTilda, Initial residual = 0.00107991, Final residual = 7.1981e-05, No Iterations 4
ExecutionTime = 12.9347 s  ClockTime = 13 s

Time = 108s

smoothSolver:  Solving for Ux, Initial residual = 0.00359092, Final residual = 0.00025235, No Iterations 4
smoothSolver:  Solving for Uy, Initial residual = 0.00145007, Final residual = 0.000101566, No Iterations 4
GAMG:  Solving for p, Initial residual = 0.00860863, Final residual = 0.000723087, No Iterations 1
time step continuity errors : sum local = 0.000792023, global = 7.3461e-05, cumulative = 0.0103572
smoothSolver:  Solving for nuTilda, Initial residual = 0.00106603, Final residual = 7.10402e-05, No Iterations 4
ExecutionTime = 13.003 s  ClockTime = 13 s

Time = 109s

smoothSolver:  Solving for Ux, Initial residual = 0.00355888, Final residual = 0.000249942, No Iterations 4
smoothSolver:  Solving for Uy, Initial residual = 0.00142819, Final residual = 0.00010005, No Iterations 4
GAMG:  Solving for p, Initial residual = 0.0084961, Final residual = 0.000815215, No Iterations 1
time step continuity errors : sum local = 0.000894592, global = 0.000118412, cumulative = 0.0104756
smoothSolver:  Solving for nuTilda, Initial residual = 0.00105289, Final residual = 7.01163e-05, No Iterations 4
ExecutionTime = 13.0712 s  ClockTime = 13 s

Time = 110s

smoothSolver:  Solving for Ux, Initial residual = 0.00352785, Final residual = 0.000247702, No Iterations 4
smoothSolver:  Solving for Uy, Initial residual = 0.00140701, Final residual = 9.86238e-05, No Iterations 4
GAMG:  Solving for p, Initial residual = 0.00841867, Final residual = 0.000491545, No Iterations 2
time step continuity errors : sum local = 0.000540355, global = -6.05973e-05, cumulative = 0.010415
smoothSolver:  Solving for nuTilda, Initial residual = 0.00103989, Final residual = 6.92295e-05, No Iterations 4
ExecutionTime = 13.1436 s  ClockTime = 13 s

Time = 111s

smoothSolver:  Solving for Ux, Initial residual = 0.00350521, Final residual = 0.000246338, No Iterations 4
smoothSolver:  Solving for Uy, Initial residual = 0.00138906, Final residual = 9.74379e-05, No Iterations 4
GAMG:  Solving for p, Initial residual = 0.0082914, Final residual = 0.000653053, No Iterations 1
time step continuity errors : sum local = 0.000719795, global = 8.7301e-05, cumulative = 0.0105023
smoothSolver:  Solving for nuTilda, Initial residual = 0.00102695, Final residual = 6.83402e-05, No Iterations 4
ExecutionTime = 13.2129 s  ClockTime = 13 s

Time = 112s

smoothSolver:  Solving for Ux, Initial residual = 0.00347035, Final residual = 0.000243871, No Iterations 4
smoothSolver:  Solving for Uy, Initial residual = 0.00136721, Final residual = 9.60225e-05, No Iterations 4
GAMG:  Solving for p, Initial residual = 0.00811462, Final residual = 0.000623825, No Iterations 1
time step continuity errors : sum local = 0.000688441, global = 7.90567e-05, cumulative = 0.0105813
smoothSolver:  Solving for nuTilda, Initial residual = 0.00101461, Final residual = 6.74626e-05, No Iterations 4
ExecutionTime = 13.2815 s  ClockTime = 13 s

Time = 113s

smoothSolver:  Solving for Ux, Initial residual = 0.00343502, Final residual = 0.00024126, No Iterations 4
smoothSolver:  Solving for Uy, Initial residual = 0.00134541, Final residual = 9.45512e-05, No Iterations 4
GAMG:  Solving for p, Initial residual = 0.00795739, Final residual = 0.000655424, No Iterations 1
time step continuity errors : sum local = 0.000724162, global = 0.00010457, cumulative = 0.0106859
smoothSolver:  Solving for nuTilda, Initial residual = 0.00100284, Final residual = 6.66146e-05, No Iterations 4
ExecutionTime = 13.3499 s  ClockTime = 13 s

Time = 114s

smoothSolver:  Solving for Ux, Initial residual = 0.0034009, Final residual = 0.000238668, No Iterations 4
smoothSolver:  Solving for Uy, Initial residual = 0.00132334, Final residual = 9.3073e-05, No Iterations 4
GAMG:  Solving for p, Initial residual = 0.00783399, Final residual = 0.000719639, No Iterations 1
time step continuity errors : sum local = 0.000795981, global = 0.000145608, cumulative = 0.0108315
smoothSolver:  Solving for nuTilda, Initial residual = 0.00099132, Final residual = 6.57828e-05, No Iterations 4
ExecutionTime = 13.4167 s  ClockTime = 13 s

Time = 115s

smoothSolver:  Solving for Ux, Initial residual = 0.00336815, Final residual = 0.000236179, No Iterations 4
smoothSolver:  Solving for Uy, Initial residual = 0.00130086, Final residual = 9.15818e-05, No Iterations 4
GAMG:  Solving for p, Initial residual = 0.00773512, Final residual = 0.000413294, No Iterations 2
time step continuity errors : sum local = 0.000457618, global = -4.19356e-05, cumulative = 0.0107896
smoothSolver:  Solving for nuTilda, Initial residual = 0.000980071, Final residual = 6.49671e-05, No Iterations 4
ExecutionTime = 13.4877 s  ClockTime = 13 s

Time = 116s

smoothSolver:  Solving for Ux, Initial residual = 0.00334237, Final residual = 0.000234346, No Iterations 4
smoothSolver:  Solving for Uy, Initial residual = 0.00127481, Final residual = 8.97856e-05, No Iterations 4
GAMG:  Solving for p, Initial residual = 0.00758962, Final residual = 0.000562327, No Iterations 1
time step continuity errors : sum local = 0.000623683, global = 8.36142e-05, cumulative = 0.0108732
smoothSolver:  Solving for nuTilda, Initial residual = 0.00096917, Final residual = 6.41871e-05, No Iterations 4
ExecutionTime = 13.5541 s  ClockTime = 13 s

Time = 117s

smoothSolver:  Solving for Ux, Initial residual = 0.00330784, Final residual = 0.000231886, No Iterations 4
smoothSolver:  Solving for Uy, Initial residual = 0.00125123, Final residual = 8.8281e-05, No Iterations 4
GAMG:  Solving for p, Initial residual = 0.0074073, Final residual = 0.000546013, No Iterations 1
time step continuity errors : sum local = 0.000606195, global = 5.57766e-05, cumulative = 0.010929
smoothSolver:  Solving for nuTilda, Initial residual = 0.00095828, Final residual = 6.34087e-05, No Iterations 4
ExecutionTime = 13.6213 s  ClockTime = 13 s

Time = 118s

smoothSolver:  Solving for Ux, Initial residual = 0.00327316, Final residual = 0.000229401, No Iterations 4
smoothSolver:  Solving for Uy, Initial residual = 0.00122816, Final residual = 8.67655e-05, No Iterations 4
GAMG:  Solving for p, Initial residual = 0.00724676, Final residual = 0.000585698, No Iterations 1
time step continuity errors : sum local = 0.00065095, global = 6.48023e-05, cumulative = 0.0109938
smoothSolver:  Solving for nuTilda, Initial residual = 0.000947593, Final residual = 6.26826e-05, No Iterations 4
ExecutionTime = 13.6893 s  ClockTime = 13 s

Time = 119s

smoothSolver:  Solving for Ux, Initial residual = 0.00323904, Final residual = 0.000226937, No Iterations 4
smoothSolver:  Solving for Uy, Initial residual = 0.00120529, Final residual = 8.52689e-05, No Iterations 4
GAMG:  Solving for p, Initial residual = 0.00712713, Final residual = 0.000644874, No Iterations 1
time step continuity errors : sum local = 0.000717567, global = 9.62964e-05, cumulative = 0.0110901
smoothSolver:  Solving for nuTilda, Initial residual = 0.000937169, Final residual = 6.20254e-05, No Iterations 4
ExecutionTime = 13.7568 s  ClockTime = 13 s

Time = 120s

smoothSolver:  Solving for Ux, Initial residual = 0.00320506, Final residual = 0.000224518, No Iterations 4
smoothSolver:  Solving for Uy, Initial residual = 0.00118265, Final residual = 8.3802e-05, No Iterations 4
GAMG:  Solving for p, Initial residual = 0.00702584, Final residual = 0.000696132, No Iterations 1
time step continuity errors : sum local = 0.000775681, global = 0.000133121, cumulative = 0.0112232
smoothSolver:  Solving for nuTilda, Initial residual = 0.000926904, Final residual = 6.14229e-05, No Iterations 4
ExecutionTime = 13.8215 s  ClockTime = 14 s

Time = 121s

smoothSolver:  Solving for Ux, Initial residual = 0.00317139, Final residual = 0.00022216, No Iterations 4
smoothSolver:  Solving for Uy, Initial residual = 0.00116032, Final residual = 8.2366e-05, No Iterations 4
GAMG:  Solving for p, Initial residual = 0.00691651, Final residual = 0.000379019, No Iterations 2
time step continuity errors : sum local = 0.000423042, global = -4.56377e-05, cumulative = 0.0111776
smoothSolver:  Solving for nuTilda, Initial residual = 0.000916885, Final residual = 6.08388e-05, No Iterations 4
ExecutionTime = 13.8934 s  ClockTime = 14 s

Time = 122s

smoothSolver:  Solving for Ux, Initial residual = 0.00314357, Final residual = 0.000220333, No Iterations 4
smoothSolver:  Solving for Uy, Initial residual = 0.001134, Final residual = 8.05629e-05, No Iterations 4
GAMG:  Solving for p, Initial residual = 0.00675105, Final residual = 0.000494917, No Iterations 1
time step continuity errors : sum local = 0.000554723, global = 7.86731e-05, cumulative = 0.0112562
smoothSolver:  Solving for nuTilda, Initial residual = 0.000907459, Final residual = 6.02634e-05, No Iterations 4
ExecutionTime = 13.96 s  ClockTime = 14 s

Time = 123s

smoothSolver:  Solving for Ux, Initial residual = 0.00310708, Final residual = 0.000217685, No Iterations 4
smoothSolver:  Solving for Uy, Initial residual = 0.00111402, Final residual = 7.93639e-05, No Iterations 4
GAMG:  Solving for p, Initial residual = 0.00658234, Final residual = 0.000488753, No Iterations 1
time step continuity errors : sum local = 0.000548458, global = 5.69846e-05, cumulative = 0.0113132
smoothSolver:  Solving for nuTilda, Initial residual = 0.000898136, Final residual = 5.96798e-05, No Iterations 4
ExecutionTime = 14.0286 s  ClockTime = 14 s

Time = 124s

smoothSolver:  Solving for Ux, Initial residual = 0.00307023, Final residual = 0.000215002, No Iterations 4
smoothSolver:  Solving for Uy, Initial residual = 0.00109577, Final residual = 7.82198e-05, No Iterations 4
GAMG:  Solving for p, Initial residual = 0.00642927, Final residual = 0.000516365, No Iterations 1
time step continuity errors : sum local = 0.000580058, global = 7.32208e-05, cumulative = 0.0113864
smoothSolver:  Solving for nuTilda, Initial residual = 0.000888851, Final residual = 5.90929e-05, No Iterations 4
ExecutionTime = 14.0971 s  ClockTime = 14 s

Time = 125s

smoothSolver:  Solving for Ux, Initial residual = 0.00303343, Final residual = 0.000212338, No Iterations 4
smoothSolver:  Solving for Uy, Initial residual = 0.00107845, Final residual = 7.71426e-05, No Iterations 4
GAMG:  Solving for p, Initial residual = 0.00629614, Final residual = 0.00055362, No Iterations 1
time step continuity errors : sum local = 0.000622535, global = 0.00011193, cumulative = 0.0114984
smoothSolver:  Solving for nuTilda, Initial residual = 0.000879951, Final residual = 5.84948e-05, No Iterations 4
ExecutionTime = 14.1654 s  ClockTime = 14 s

Time = 126s

smoothSolver:  Solving for Ux, Initial residual = 0.00299738, Final residual = 0.000209727, No Iterations 4
smoothSolver:  Solving for Uy, Initial residual = 0.00106161, Final residual = 7.61241e-05, No Iterations 4
GAMG:  Solving for p, Initial residual = 0.00619306, Final residual = 0.000610103, No Iterations 1
time step continuity errors : sum local = 0.000686745, global = 0.000153939, cumulative = 0.0116523
smoothSolver:  Solving for nuTilda, Initial residual = 0.000871023, Final residual = 5.7875e-05, No Iterations 4
ExecutionTime = 14.2298 s  ClockTime = 14 s

Time = 127s

smoothSolver:  Solving for Ux, Initial residual = 0.00296247, Final residual = 0.000207219, No Iterations 4
smoothSolver:  Solving for Uy, Initial residual = 0.00104509, Final residual = 7.51255e-05, No Iterations 4
GAMG:  Solving for p, Initial residual = 0.00610884, Final residual = 0.000354227, No Iterations 2
time step continuity errors : sum local = 0.000399163, global = -2.61377e-05, cumulative = 0.0116262
smoothSolver:  Solving for nuTilda, Initial residual = 0.000862268, Final residual = 5.72508e-05, No Iterations 4
ExecutionTime = 14.2959 s  ClockTime = 14 s

Time = 128s

smoothSolver:  Solving for Ux, Initial residual = 0.00293265, Final residual = 0.000205104, No Iterations 4
smoothSolver:  Solving for Uy, Initial residual = 0.00102422, Final residual = 7.3757e-05, No Iterations 4
GAMG:  Solving for p, Initial residual = 0.00597482, Final residual = 0.000448576, No Iterations 1
time step continuity errors : sum local = 0.00050671, global = 8.69588e-05, cumulative = 0.0117131
smoothSolver:  Solving for nuTilda, Initial residual = 0.000853543, Final residual = 5.6618e-05, No Iterations 4
ExecutionTime = 14.3605 s  ClockTime = 14 s

Time = 129s

smoothSolver:  Solving for Ux, Initial residual = 0.0028965, Final residual = 0.0002025, No Iterations 4
smoothSolver:  Solving for Uy, Initial residual = 0.00100823, Final residual = 7.28322e-05, No Iterations 4
GAMG:  Solving for p, Initial residual = 0.00580726, Final residual = 0.000423185, No Iterations 1
time step continuity errors : sum local = 0.000478345, global = 4.47746e-05, cumulative = 0.0117579
smoothSolver:  Solving for nuTilda, Initial residual = 0.0008447, Final residual = 5.59742e-05, No Iterations 4
ExecutionTime = 14.429 s  ClockTime = 14 s

Time = 130s

smoothSolver:  Solving for Ux, Initial residual = 0.00286027, Final residual = 0.00019989, No Iterations 4
smoothSolver:  Solving for Uy, Initial residual = 0.000992999, Final residual = 7.18722e-05, No Iterations 4
GAMG:  Solving for p, Initial residual = 0.00566301, Final residual = 0.000447057, No Iterations 1
time step continuity errors : sum local = 0.000505642, global = 4.03274e-05, cumulative = 0.0117982
smoothSolver:  Solving for nuTilda, Initial residual = 0.000835677, Final residual = 5.53226e-05, No Iterations 4
ExecutionTime = 14.4933 s  ClockTime = 14 s

Time = 131s

smoothSolver:  Solving for Ux, Initial residual = 0.00282444, Final residual = 0.000197315, No Iterations 4
smoothSolver:  Solving for Uy, Initial residual = 0.000977814, Final residual = 7.08985e-05, No Iterations 4
GAMG:  Solving for p, Initial residual = 0.00553986, Final residual = 0.000484768, No Iterations 1
time step continuity errors : sum local = 0.000548626, global = 6.04201e-05, cumulative = 0.0118586
smoothSolver:  Solving for nuTilda, Initial residual = 0.000826432, Final residual = 5.46573e-05, No Iterations 4
ExecutionTime = 14.5574 s  ClockTime = 14 s

Time = 132s

smoothSolver:  Solving for Ux, Initial residual = 0.00278929, Final residual = 0.000194802, No Iterations 4
smoothSolver:  Solving for Uy, Initial residual = 0.000962313, Final residual = 6.98925e-05, No Iterations 4
GAMG:  Solving for p, Initial residual = 0.0054384, Final residual = 0.00052009, No Iterations 1
time step continuity errors : sum local = 0.000588979, global = 8.85111e-05, cumulative = 0.0119472
smoothSolver:  Solving for nuTilda, Initial residual = 0.000817086, Final residual = 5.39841e-05, No Iterations 4
ExecutionTime = 14.6223 s  ClockTime = 14 s

Time = 133s

smoothSolver:  Solving for Ux, Initial residual = 0.00275509, Final residual = 0.000192377, No Iterations 4
smoothSolver:  Solving for Uy, Initial residual = 0.000946535, Final residual = 6.88559e-05, No Iterations 4
GAMG:  Solving for p, Initial residual = 0.00533954, Final residual = 0.000291641, No Iterations 2
time step continuity errors : sum local = 0.000330511, global = -3.97705e-05, cumulative = 0.0119074
smoothSolver:  Solving for nuTilda, Initial residual = 0.000807738, Final residual = 5.33025e-05, No Iterations 4
ExecutionTime = 14.6952 s  ClockTime = 14 s

Time = 134s

smoothSolver:  Solving for Ux, Initial residual = 0.0027251, Final residual = 0.000190292, No Iterations 4
smoothSolver:  Solving for Uy, Initial residual = 0.000925159, Final residual = 6.73221e-05, No Iterations 4
GAMG:  Solving for p, Initial residual = 0.00522266, Final residual = 0.000384083, No Iterations 1
time step continuity errors : sum local = 0.000436015, global = 6.23754e-05, cumulative = 0.0119698
smoothSolver:  Solving for nuTilda, Initial residual = 0.000798316, Final residual = 5.26141e-05, No Iterations 4
ExecutionTime = 14.7743 s  ClockTime = 14 s

Time = 135s

[...]
smoothSolver:  Solving for Uy, Initial residual = 0.000177818, Final residual = 1.28502e-05, No Iterations 4
GAMG:  Solving for p, Initial residual = 0.000781351, Final residual = 6.19596e-05, No Iterations 1
time step continuity errors : sum local = 7.44723e-05, global = 5.78148e-06, cumulative = 0.011587
smoothSolver:  Solving for nuTilda, Initial residual = 3.15266e-05, Final residual = 1.95819e-06, No Iterations 4
ExecutionTime = 37.8261 s  ClockTime = 38 s

Time = 468s

smoothSolver:  Solving for Ux, Initial residual = 0.000405757, Final residual = 2.98232e-05, No Iterations 4
smoothSolver:  Solving for Uy, Initial residual = 0.000175959, Final residual = 1.27086e-05, No Iterations 4
GAMG:  Solving for p, Initial residual = 0.000767636, Final residual = 7.06518e-05, No Iterations 1
time step continuity errors : sum local = 8.49183e-05, global = 9.74848e-06, cumulative = 0.0115967
smoothSolver:  Solving for nuTilda, Initial residual = 3.12454e-05, Final residual = 1.94104e-06, No Iterations 4
ExecutionTime = 37.8945 s  ClockTime = 38 s

Time = 469s

smoothSolver:  Solving for Ux, Initial residual = 0.000403716, Final residual = 2.96623e-05, No Iterations 4
smoothSolver:  Solving for Uy, Initial residual = 0.000174221, Final residual = 1.25784e-05, No Iterations 4
GAMG:  Solving for p, Initial residual = 0.000761644, Final residual = 6.11983e-05, No Iterations 2
time step continuity errors : sum local = 7.35569e-05, global = -7.69072e-06, cumulative = 0.011589
smoothSolver:  Solving for nuTilda, Initial residual = 3.09755e-05, Final residual = 1.92448e-06, No Iterations 4
ExecutionTime = 37.9672 s  ClockTime = 38 s

Time = 470s

smoothSolver:  Solving for Ux, Initial residual = 0.000402156, Final residual = 2.95968e-05, No Iterations 4
smoothSolver:  Solving for Uy, Initial residual = 0.000173871, Final residual = 1.25612e-05, No Iterations 4
GAMG:  Solving for p, Initial residual = 0.000766476, Final residual = 6.84033e-05, No Iterations 1
time step continuity errors : sum local = 8.22504e-05, global = 9.80912e-06, cumulative = 0.0115988
smoothSolver:  Solving for nuTilda, Initial residual = 3.06917e-05, Final residual = 1.90701e-06, No Iterations 4
ExecutionTime = 38.0364 s  ClockTime = 38 s

Time = 471s

smoothSolver:  Solving for Ux, Initial residual = 0.000400056, Final residual = 2.94376e-05, No Iterations 4
smoothSolver:  Solving for Uy, Initial residual = 0.000172233, Final residual = 1.24445e-05, No Iterations 4
GAMG:  Solving for p, Initial residual = 0.000753922, Final residual = 7.22222e-05, No Iterations 1
time step continuity errors : sum local = 8.6843e-05, global = 1.15661e-05, cumulative = 0.0116104
smoothSolver:  Solving for nuTilda, Initial residual = 3.04174e-05, Final residual = 1.89012e-06, No Iterations 4
ExecutionTime = 38.1046 s  ClockTime = 38 s

Time = 472s

smoothSolver:  Solving for Ux, Initial residual = 0.000397968, Final residual = 2.92807e-05, No Iterations 4
smoothSolver:  Solving for Uy, Initial residual = 0.000170811, Final residual = 1.23399e-05, No Iterations 4
GAMG:  Solving for p, Initial residual = 0.000746172, Final residual = 6.35402e-05, No Iterations 2
time step continuity errors : sum local = 7.64053e-05, global = -8.83442e-06, cumulative = 0.0116016
smoothSolver:  Solving for nuTilda, Initial residual = 3.01521e-05, Final residual = 1.87386e-06, No Iterations 4
ExecutionTime = 38.1758 s  ClockTime = 38 s

Time = 473s

smoothSolver:  Solving for Ux, Initial residual = 0.00039615, Final residual = 2.92002e-05, No Iterations 4
smoothSolver:  Solving for Uy, Initial residual = 0.000171003, Final residual = 1.23653e-05, No Iterations 4
GAMG:  Solving for p, Initial residual = 0.000751787, Final residual = 5.80638e-05, No Iterations 1
time step continuity errors : sum local = 6.98525e-05, global = 5.80303e-06, cumulative = 0.0116074
smoothSolver:  Solving for nuTilda, Initial residual = 2.98752e-05, Final residual = 1.85692e-06, No Iterations 4
ExecutionTime = 38.2448 s  ClockTime = 38 s

Time = 474s

smoothSolver:  Solving for Ux, Initial residual = 0.000394015, Final residual = 2.90285e-05, No Iterations 4
smoothSolver:  Solving for Uy, Initial residual = 0.000169189, Final residual = 1.22324e-05, No Iterations 4
GAMG:  Solving for p, Initial residual = 0.000733552, Final residual = 5.87219e-05, No Iterations 1
time step continuity errors : sum local = 7.06432e-05, global = 5.64234e-06, cumulative = 0.011613
smoothSolver:  Solving for nuTilda, Initial residual = 2.96095e-05, Final residual = 1.84066e-06, No Iterations 4
ExecutionTime = 38.3135 s  ClockTime = 38 s

Time = 475s

smoothSolver:  Solving for Ux, Initial residual = 0.000391995, Final residual = 2.88628e-05, No Iterations 4
smoothSolver:  Solving for Uy, Initial residual = 0.000167421, Final residual = 1.20976e-05, No Iterations 4
GAMG:  Solving for p, Initial residual = 0.000720277, Final residual = 6.68337e-05, No Iterations 1
time step continuity errors : sum local = 8.04008e-05, global = 9.48125e-06, cumulative = 0.0116225
smoothSolver:  Solving for nuTilda, Initial residual = 2.93514e-05, Final residual = 1.82466e-06, No Iterations 4
ExecutionTime = 38.3823 s  ClockTime = 38 s

Time = 476s

smoothSolver:  Solving for Ux, Initial residual = 0.000390105, Final residual = 2.87126e-05, No Iterations 4
smoothSolver:  Solving for Uy, Initial residual = 0.000165763, Final residual = 1.19734e-05, No Iterations 4
GAMG:  Solving for p, Initial residual = 0.000714446, Final residual = 5.84217e-05, No Iterations 2
time step continuity errors : sum local = 7.02824e-05, global = -7.26584e-06, cumulative = 0.0116152
smoothSolver:  Solving for nuTilda, Initial residual = 2.90993e-05, Final residual = 1.80932e-06, No Iterations 4
ExecutionTime = 38.454 s  ClockTime = 38 s

Time = 477s

smoothSolver:  Solving for Ux, Initial residual = 0.000388655, Final residual = 2.86541e-05, No Iterations 4
smoothSolver:  Solving for Uy, Initial residual = 0.000165449, Final residual = 1.19575e-05, No Iterations 4
GAMG:  Solving for p, Initial residual = 0.000719252, Final residual = 6.49913e-05, No Iterations 1
time step continuity errors : sum local = 7.82175e-05, global = 9.59225e-06, cumulative = 0.0116248
smoothSolver:  Solving for nuTilda, Initial residual = 2.88384e-05, Final residual = 1.79341e-06, No Iterations 4
ExecutionTime = 38.5216 s  ClockTime = 38 s

Time = 478s

smoothSolver:  Solving for Ux, Initial residual = 0.000386693, Final residual = 2.85043e-05, No Iterations 4
smoothSolver:  Solving for Uy, Initial residual = 0.000163888, Final residual = 1.18466e-05, No Iterations 4
GAMG:  Solving for p, Initial residual = 0.000707137, Final residual = 6.86263e-05, No Iterations 1
time step continuity errors : sum local = 8.25934e-05, global = 1.12509e-05, cumulative = 0.0116361
smoothSolver:  Solving for nuTilda, Initial residual = 2.8588e-05, Final residual = 1.77804e-06, No Iterations 4
ExecutionTime = 38.5897 s  ClockTime = 38 s

Time = 479s

smoothSolver:  Solving for Ux, Initial residual = 0.000384726, Final residual = 2.83554e-05, No Iterations 4
smoothSolver:  Solving for Uy, Initial residual = 0.000162534, Final residual = 1.17478e-05, No Iterations 4
GAMG:  Solving for p, Initial residual = 0.000699633, Final residual = 6.1082e-05, No Iterations 2
time step continuity errors : sum local = 7.35157e-05, global = -8.64364e-06, cumulative = 0.0116274
smoothSolver:  Solving for nuTilda, Initial residual = 2.8344e-05, Final residual = 1.76325e-06, No Iterations 4
ExecutionTime = 38.6621 s  ClockTime = 38 s

Time = 480s

smoothSolver:  Solving for Ux, Initial residual = 0.000382956, Final residual = 2.82763e-05, No Iterations 4
smoothSolver:  Solving for Uy, Initial residual = 0.000162712, Final residual = 1.17716e-05, No Iterations 4
GAMG:  Solving for p, Initial residual = 0.000705213, Final residual = 5.48682e-05, No Iterations 1
time step continuity errors : sum local = 6.60667e-05, global = 5.42784e-06, cumulative = 0.0116329
smoothSolver:  Solving for nuTilda, Initial residual = 2.80836e-05, Final residual = 1.74729e-06, No Iterations 4
ExecutionTime = 38.7305 s  ClockTime = 38 s

Time = 481s

smoothSolver:  Solving for Ux, Initial residual = 0.00038094, Final residual = 2.81123e-05, No Iterations 4
smoothSolver:  Solving for Uy, Initial residual = 0.000160976, Final residual = 1.16447e-05, No Iterations 4
GAMG:  Solving for p, Initial residual = 0.000687523, Final residual = 5.52411e-05, No Iterations 1
time step continuity errors : sum local = 6.65151e-05, global = 5.14021e-06, cumulative = 0.011638
smoothSolver:  Solving for nuTilda, Initial residual = 2.78309e-05, Final residual = 1.73153e-06, No Iterations 4
ExecutionTime = 38.8002 s  ClockTime = 39 s

Time = 482s

smoothSolver:  Solving for Ux, Initial residual = 0.000379038, Final residual = 2.79543e-05, No Iterations 4
smoothSolver:  Solving for Uy, Initial residual = 0.000159284, Final residual = 1.15157e-05, No Iterations 4
GAMG:  Solving for p, Initial residual = 0.000674816, Final residual = 6.29776e-05, No Iterations 1
time step continuity errors : sum local = 7.58298e-05, global = 8.77697e-06, cumulative = 0.0116468
smoothSolver:  Solving for nuTilda, Initial residual = 2.75844e-05, Final residual = 1.71608e-06, No Iterations 4
ExecutionTime = 38.869 s  ClockTime = 39 s

Time = 483s

smoothSolver:  Solving for Ux, Initial residual = 0.00037726, Final residual = 2.78107e-05, No Iterations 4
smoothSolver:  Solving for Uy, Initial residual = 0.000157689, Final residual = 1.13958e-05, No Iterations 4
GAMG:  Solving for p, Initial residual = 0.000669281, Final residual = 5.48963e-05, No Iterations 2
time step continuity errors : sum local = 6.61006e-05, global = -6.91815e-06, cumulative = 0.0116399
smoothSolver:  Solving for nuTilda, Initial residual = 2.73469e-05, Final residual = 1.70155e-06, No Iterations 4
ExecutionTime = 38.9412 s  ClockTime = 39 s

Time = 484s

smoothSolver:  Solving for Ux, Initial residual = 0.000375877, Final residual = 2.77534e-05, No Iterations 4
smoothSolver:  Solving for Uy, Initial residual = 0.000157335, Final residual = 1.13751e-05, No Iterations 4
GAMG:  Solving for p, Initial residual = 0.000673414, Final residual = 6.16278e-05, No Iterations 1
time step continuity errors : sum local = 7.42343e-05, global = 9.34371e-06, cumulative = 0.0116492
smoothSolver:  Solving for nuTilda, Initial residual = 2.70992e-05, Final residual = 1.68627e-06, No Iterations 4
ExecutionTime = 39.0128 s  ClockTime = 39 s

Time = 485s

smoothSolver:  Solving for Ux, Initial residual = 0.000374048, Final residual = 2.76108e-05, No Iterations 4
smoothSolver:  Solving for Uy, Initial residual = 0.000155845, Final residual = 1.12694e-05, No Iterations 4
GAMG:  Solving for p, Initial residual = 0.000662019, Final residual = 6.54456e-05, No Iterations 1
time step continuity errors : sum local = 7.88343e-05, global = 1.1239e-05, cumulative = 0.0116604
smoothSolver:  Solving for nuTilda, Initial residual = 2.68593e-05, Final residual = 1.67153e-06, No Iterations 4
ExecutionTime = 39.082 s  ClockTime = 39 s

Time = 486s

smoothSolver:  Solving for Ux, Initial residual = 0.000372218, Final residual = 2.74696e-05, No Iterations 4
smoothSolver:  Solving for Uy, Initial residual = 0.000154563, Final residual = 1.11764e-05, No Iterations 4
GAMG:  Solving for p, Initial residual = 0.000655359, Final residual = 5.88889e-05, No Iterations 2
time step continuity errors : sum local = 7.09387e-05, global = -8.43278e-06, cumulative = 0.011652
smoothSolver:  Solving for nuTilda, Initial residual = 2.66271e-05, Final residual = 1.65734e-06, No Iterations 4
ExecutionTime = 39.154 s  ClockTime = 39 s

Time = 487s

smoothSolver:  Solving for Ux, Initial residual = 0.000370556, Final residual = 2.73962e-05, No Iterations 4
smoothSolver:  Solving for Uy, Initial residual = 0.000154753, Final residual = 1.11998e-05, No Iterations 4
GAMG:  Solving for p, Initial residual = 0.000660997, Final residual = 5.22603e-05, No Iterations 1
time step continuity errors : sum local = 6.29815e-05, global = 5.45332e-06, cumulative = 0.0116575
smoothSolver:  Solving for nuTilda, Initial residual = 2.63857e-05, Final residual = 1.64236e-06, No Iterations 4
ExecutionTime = 39.223 s  ClockTime = 39 s

Time = 488s

smoothSolver:  Solving for Ux, Initial residual = 0.000368661, Final residual = 2.72387e-05, No Iterations 4
smoothSolver:  Solving for Uy, Initial residual = 0.000153102, Final residual = 1.10797e-05, No Iterations 4
GAMG:  Solving for p, Initial residual = 0.000643911, Final residual = 5.22932e-05, No Iterations 1
time step continuity errors : sum local = 6.30207e-05, global = 4.93097e-06, cumulative = 0.0116624
smoothSolver:  Solving for nuTilda, Initial residual = 2.61516e-05, Final residual = 1.62795e-06, No Iterations 4
ExecutionTime = 39.2917 s  ClockTime = 39 s

Time = 489s

smoothSolver:  Solving for Ux, Initial residual = 0.000366873, Final residual = 2.70864e-05, No Iterations 4
smoothSolver:  Solving for Uy, Initial residual = 0.000151492, Final residual = 1.09575e-05, No Iterations 4
GAMG:  Solving for p, Initial residual = 0.000631579, Final residual = 5.9411e-05, No Iterations 1
time step continuity errors : sum local = 7.15982e-05, global = 8.28892e-06, cumulative = 0.0116707
smoothSolver:  Solving for nuTilda, Initial residual = 2.59213e-05, Final residual = 1.61408e-06, No Iterations 4
ExecutionTime = 39.3605 s  ClockTime = 39 s

Time = 490s

smoothSolver:  Solving for Ux, Initial residual = 0.000365199, Final residual = 2.69475e-05, No Iterations 4
smoothSolver:  Solving for Uy, Initial residual = 0.000149973, Final residual = 1.08435e-05, No Iterations 4
GAMG:  Solving for p, Initial residual = 0.000626352, Final residual = 5.19917e-05, No Iterations 2
time step continuity errors : sum local = 6.26583e-05, global = -6.57455e-06, cumulative = 0.0116641
smoothSolver:  Solving for nuTilda, Initial residual = 2.56992e-05, Final residual = 1.60098e-06, No Iterations 4
ExecutionTime = 39.4313 s  ClockTime = 39 s

Time = 491s

smoothSolver:  Solving for Ux, Initial residual = 0.000363869, Final residual = 2.68896e-05, No Iterations 4
smoothSolver:  Solving for Uy, Initial residual = 0.000149641, Final residual = 1.08242e-05, No Iterations 4
GAMG:  Solving for p, Initial residual = 0.000630331, Final residual = 5.84299e-05, No Iterations 1
time step continuity errors : sum local = 7.04436e-05, global = 9.06092e-06, cumulative = 0.0116732
smoothSolver:  Solving for nuTilda, Initial residual = 2.5467e-05, Final residual = 1.58753e-06, No Iterations 4
ExecutionTime = 39.4998 s  ClockTime = 39 s

Time = 492s

smoothSolver:  Solving for Ux, Initial residual = 0.000362142, Final residual = 2.67518e-05, No Iterations 4
smoothSolver:  Solving for Uy, Initial residual = 0.000148222, Final residual = 1.07237e-05, No Iterations 4
GAMG:  Solving for p, Initial residual = 0.000619579, Final residual = 5.06144e-05, No Iterations 2
time step continuity errors : sum local = 6.10221e-05, global = -6.64312e-06, cumulative = 0.0116665
smoothSolver:  Solving for nuTilda, Initial residual = 2.52466e-05, Final residual = 1.57489e-06, No Iterations 4
ExecutionTime = 39.5723 s  ClockTime = 39 s

Time = 493s

smoothSolver:  Solving for Ux, Initial residual = 0.000360544, Final residual = 2.66714e-05, No Iterations 4
smoothSolver:  Solving for Uy, Initial residual = 0.000148198, Final residual = 1.07323e-05, No Iterations 4
GAMG:  Solving for p, Initial residual = 0.000623032, Final residual = 4.60785e-05, No Iterations 1
time step continuity errors : sum local = 5.55722e-05, global = 2.59519e-06, cumulative = 0.0116691
smoothSolver:  Solving for nuTilda, Initial residual = 2.50205e-05, Final residual = 1.56168e-06, No Iterations 4
ExecutionTime = 39.6418 s  ClockTime = 39 s

Time = 494s

smoothSolver:  Solving for Ux, Initial residual = 0.000358724, Final residual = 2.65148e-05, No Iterations 4
smoothSolver:  Solving for Uy, Initial residual = 0.000146589, Final residual = 1.06118e-05, No Iterations 4
GAMG:  Solving for p, Initial residual = 0.00060594, Final residual = 4.62251e-05, No Iterations 1
time step continuity errors : sum local = 5.5748e-05, global = 3.41677e-06, cumulative = 0.0116725
smoothSolver:  Solving for nuTilda, Initial residual = 2.48033e-05, Final residual = 1.54896e-06, No Iterations 4
ExecutionTime = 39.7109 s  ClockTime = 39 s

Time = 495s

smoothSolver:  Solving for Ux, Initial residual = 0.000356978, Final residual = 2.63614e-05, No Iterations 4
smoothSolver:  Solving for Uy, Initial residual = 0.000145004, Final residual = 1.04914e-05, No Iterations 4
GAMG:  Solving for p, Initial residual = 0.000594744, Final residual = 5.41328e-05, No Iterations 1
time step continuity errors : sum local = 6.52836e-05, global = 7.85287e-06, cumulative = 0.0116804
smoothSolver:  Solving for nuTilda, Initial residual = 2.45925e-05, Final residual = 1.5365e-06, No Iterations 4
ExecutionTime = 39.7801 s  ClockTime = 40 s

Time = 496s

smoothSolver:  Solving for Ux, Initial residual = 0.00035532, Final residual = 2.62207e-05, No Iterations 4
smoothSolver:  Solving for Uy, Initial residual = 0.000143532, Final residual = 1.03808e-05, No Iterations 4
GAMG:  Solving for p, Initial residual = 0.000590649, Final residual = 5.17319e-05, No Iterations 2
time step continuity errors : sum local = 6.23888e-05, global = -6.82474e-06, cumulative = 0.0116736
smoothSolver:  Solving for nuTilda, Initial residual = 2.43922e-05, Final residual = 1.52472e-06, No Iterations 4
ExecutionTime = 39.8516 s  ClockTime = 40 s

Time = 497s

smoothSolver:  Solving for Ux, Initial residual = 0.000354007, Final residual = 2.6165e-05, No Iterations 4
smoothSolver:  Solving for Uy, Initial residual = 0.000143187, Final residual = 1.03591e-05, No Iterations 4
GAMG:  Solving for p, Initial residual = 0.00059496, Final residual = 5.84034e-05, No Iterations 1
time step continuity errors : sum local = 7.04596e-05, global = 9.69413e-06, cumulative = 0.0116833
smoothSolver:  Solving for nuTilda, Initial residual = 2.41801e-05, Final residual = 1.51221e-06, No Iterations 4
ExecutionTime = 39.9207 s  ClockTime = 40 s

Time = 498s

smoothSolver:  Solving for Ux, Initial residual = 0.000352374, Final residual = 2.60353e-05, No Iterations 4
smoothSolver:  Solving for Uy, Initial residual = 0.000141858, Final residual = 1.02659e-05, No Iterations 4
GAMG:  Solving for p, Initial residual = 0.000585616, Final residual = 5.10969e-05, No Iterations 2
time step continuity errors : sum local = 6.1646e-05, global = -7.32627e-06, cumulative = 0.0116759
smoothSolver:  Solving for nuTilda, Initial residual = 2.39792e-05, Final residual = 1.50036e-06, No Iterations 4
ExecutionTime = 39.9928 s  ClockTime = 40 s

Time = 499s

smoothSolver:  Solving for Ux, Initial residual = 0.000350925, Final residual = 2.59681e-05, No Iterations 4
smoothSolver:  Solving for Uy, Initial residual = 0.0001419, Final residual = 1.02796e-05, No Iterations 4
GAMG:  Solving for p, Initial residual = 0.000590907, Final residual = 4.54777e-05, No Iterations 1
time step continuity errors : sum local = 5.48862e-05, global = 2.73332e-06, cumulative = 0.0116787
smoothSolver:  Solving for nuTilda, Initial residual = 2.37723e-05, Final residual = 1.48791e-06, No Iterations 4
ExecutionTime = 40.0617 s  ClockTime = 40 s

Time = 500s

smoothSolver:  Solving for Ux, Initial residual = 0.000349182, Final residual = 2.58176e-05, No Iterations 4
smoothSolver:  Solving for Uy, Initial residual = 0.000140381, Final residual = 1.01665e-05, No Iterations 4
GAMG:  Solving for p, Initial residual = 0.000573958, Final residual = 4.47689e-05, No Iterations 1
time step continuity errors : sum local = 5.40299e-05, global = 3.21078e-06, cumulative = 0.0116819
smoothSolver:  Solving for nuTilda, Initial residual = 2.35704e-05, Final residual = 1.47562e-06, No Iterations 4
ExecutionTime = 40.1328 s  ClockTime = 40 s

End

